*SPEF "ieee 1481-1999"
*DESIGN "vmsu_8bit_top"
*DATE "11:11:11 Fri 11 11, 1111"
*VENDOR "OpenRCX"
*PROGRAM "Parallel Extraction"
*VERSION "1.0"
*DESIGN_FLOW "NAME_SCOPE LOCAL" "PIN_CAP NONE"
*DIVIDER /
*DELIMITER :
*BUS_DELIMITER []
*T_UNIT 1 NS
*C_UNIT 1 PF
*R_UNIT 1 OHM
*L_UNIT 1 HENRY

*NAME_MAP
*1 a[0]
*2 a[1]
*3 a[2]
*4 a[3]
*5 a[4]
*6 a[5]
*7 a[6]
*8 a[7]
*9 b[0]
*10 b[1]
*11 b[2]
*12 b[3]
*13 b[4]
*14 b[5]
*15 b[6]
*16 b[7]
*17 clk
*18 control
*19 p[0]
*20 p[10]
*21 p[11]
*22 p[12]
*23 p[13]
*24 p[14]
*25 p[15]
*26 p[1]
*27 p[2]
*28 p[3]
*29 p[4]
*30 p[5]
*31 p[6]
*32 p[7]
*33 p[8]
*34 p[9]
*35 rst
*38 FA0\.q
*39 FA1\.q
*40 FA2\.q
*41 FA3\.q
*42 FA4\.q
*43 FA5\.q
*44 FA6\.q
*45 FA7\.q
*46 FB0\.q
*47 FB1\.q
*48 FB2\.q
*49 FB3\.q
*50 FB4\.q
*51 FB5\.q
*52 FB6\.q
*53 FB7\.q
*54 FC\.q
*55 FP0\.d
*56 FP1\.d
*57 FP10\.d
*58 FP11\.d
*59 FP12\.d
*60 FP13\.d
*61 FP14\.d
*62 FP15\.d
*63 FP2\.d
*64 FP3\.d
*65 FP4\.d
*66 FP5\.d
*67 FP6\.d
*68 FP7\.d
*69 FP8\.d
*70 FP9\.d
*71 M0\.FAM0\.d
*72 M0\.FAM0\.q
*73 M0\.FAM1\.d
*74 M0\.FAM1\.q
*75 M0\.FAM2\.d
*76 M0\.FAM2\.q
*77 M0\.FAM3\.d
*78 M0\.FAM3\.q
*79 M0\.FAM4\.d
*80 M0\.FAM4\.q
*81 M0\.FAM5\.d
*82 M0\.FAM5\.q
*83 M0\.FAM6\.d
*84 M0\.FAM6\.q
*85 M0\.FAM7\.d
*86 M0\.FAM7\.q
*87 M0\.FBM0\.d
*88 M0\.FBM0\.q
*89 M0\.FBM1\.d
*90 M0\.FBM1\.q
*91 M0\.FBM2\.d
*92 M0\.FBM2\.q
*93 M0\.FBM3\.d
*94 M0\.FBM3\.q
*95 M0\.FBM4\.d
*96 M0\.FBM4\.q
*97 M0\.FBM5\.d
*98 M0\.FBM5\.q
*99 M0\.FBM6\.d
*100 M0\.FBM6\.q
*101 M0\.FBM7\.d
*102 M0\.FBM7\.q
*103 M0\.FPM0\.d
*104 M0\.FPM0\.q
*105 M0\.FPM1\.d
*106 M0\.FPM1\.q
*107 M0\.FPM10\.d
*108 M0\.FPM10\.q
*109 M0\.FPM11\.d
*110 M0\.FPM11\.q
*111 M0\.FPM12\.d
*112 M0\.FPM12\.q
*113 M0\.FPM13\.d
*114 M0\.FPM13\.q
*115 M0\.FPM14\.d
*116 M0\.FPM14\.q
*117 M0\.FPM15\.d
*118 M0\.FPM15\.q
*119 M0\.FPM2\.d
*120 M0\.FPM2\.q
*121 M0\.FPM3\.d
*122 M0\.FPM3\.q
*123 M0\.FPM4\.d
*124 M0\.FPM4\.q
*125 M0\.FPM5\.d
*126 M0\.FPM5\.q
*127 M0\.FPM6\.d
*128 M0\.FPM6\.q
*129 M0\.FPM7\.d
*130 M0\.FPM7\.q
*131 M0\.FPM8\.d
*132 M0\.FPM8\.q
*133 M0\.FPM9\.d
*134 M0\.FPM9\.q
*135 _0000_
*136 _0001_
*137 _0002_
*138 _0003_
*139 _0004_
*140 _0005_
*141 _0006_
*142 _0007_
*143 _0008_
*144 _0009_
*145 _0010_
*146 _0011_
*147 _0012_
*148 _0013_
*149 _0014_
*150 _0015_
*151 _0016_
*152 _0017_
*153 _0018_
*154 _0019_
*155 _0020_
*156 _0021_
*157 _0022_
*158 _0023_
*159 _0024_
*160 _0025_
*161 _0026_
*162 _0027_
*163 _0028_
*164 _0029_
*165 _0030_
*166 _0031_
*167 _0032_
*168 _0033_
*169 _0034_
*170 _0035_
*171 _0036_
*172 _0037_
*173 _0038_
*174 _0039_
*175 _0040_
*176 _0041_
*177 _0042_
*178 _0043_
*179 _0044_
*180 _0045_
*181 _0046_
*182 _0047_
*183 _0048_
*184 _0049_
*185 _0050_
*186 _0051_
*187 _0052_
*188 _0053_
*189 _0054_
*190 _0055_
*191 _0056_
*192 _0057_
*193 _0058_
*194 _0059_
*195 _0060_
*196 _0061_
*197 _0062_
*198 _0063_
*199 _0064_
*200 _0065_
*201 _0066_
*202 _0067_
*203 _0068_
*204 _0069_
*205 _0070_
*206 _0071_
*207 _0072_
*208 _0073_
*209 _0074_
*210 _0075_
*211 _0076_
*212 _0077_
*213 _0078_
*214 _0079_
*215 _0080_
*216 _0081_
*217 _0082_
*218 _0083_
*219 _0084_
*220 _0085_
*221 _0086_
*222 _0087_
*223 _0088_
*224 _0089_
*225 _0090_
*226 _0091_
*227 _0092_
*228 _0093_
*229 _0094_
*230 _0095_
*231 _0096_
*232 _0097_
*233 _0098_
*234 _0099_
*235 _0100_
*236 _0101_
*237 _0102_
*238 _0103_
*239 _0104_
*240 _0105_
*241 _0106_
*242 _0107_
*243 _0108_
*244 _0109_
*245 _0110_
*246 _0111_
*247 _0112_
*248 _0113_
*249 _0114_
*250 _0115_
*251 _0116_
*252 _0117_
*253 _0118_
*254 _0119_
*255 _0120_
*256 _0121_
*257 _0122_
*258 _0123_
*259 _0124_
*260 _0125_
*261 _0126_
*262 _0127_
*263 _0128_
*264 _0129_
*265 _0130_
*266 _0131_
*267 _0132_
*268 _0133_
*269 _0134_
*270 _0135_
*271 _0136_
*272 _0137_
*273 _0138_
*274 _0139_
*275 _0140_
*276 _0141_
*277 _0142_
*278 _0143_
*279 _0144_
*280 _0145_
*281 _0146_
*282 _0147_
*283 _0148_
*284 _0149_
*285 _0150_
*286 _0151_
*287 _0152_
*288 _0153_
*289 _0154_
*290 _0155_
*291 _0156_
*292 _0157_
*293 _0158_
*294 _0159_
*295 _0160_
*296 _0161_
*297 _0162_
*298 _0163_
*299 _0164_
*300 _0165_
*301 _0166_
*302 _0167_
*303 _0168_
*304 _0169_
*305 _0170_
*306 _0171_
*307 _0172_
*308 _0173_
*309 _0174_
*310 _0175_
*311 _0176_
*312 _0177_
*313 _0178_
*314 _0179_
*315 _0180_
*316 _0181_
*317 _0182_
*318 _0183_
*319 _0184_
*320 _0185_
*321 _0186_
*322 _0187_
*323 _0188_
*324 _0189_
*325 _0190_
*326 _0191_
*327 _0192_
*328 _0193_
*329 _0194_
*330 _0195_
*331 _0196_
*332 _0197_
*333 _0198_
*334 _0199_
*335 _0200_
*336 _0201_
*337 _0202_
*338 _0203_
*339 _0204_
*340 _0205_
*341 _0206_
*342 _0207_
*343 _0208_
*344 _0209_
*345 _0210_
*346 _0211_
*347 _0212_
*348 _0213_
*349 _0214_
*350 _0215_
*351 _0216_
*352 _0217_
*353 _0218_
*354 _0219_
*355 _0220_
*356 _0221_
*357 _0222_
*358 _0223_
*359 _0224_
*360 _0225_
*361 _0226_
*362 _0227_
*363 _0228_
*364 _0229_
*365 _0230_
*366 _0231_
*367 _0232_
*368 _0233_
*369 _0234_
*370 _0235_
*371 _0236_
*372 _0237_
*373 _0238_
*374 _0239_
*375 _0240_
*376 _0241_
*377 _0242_
*378 _0243_
*379 _0244_
*380 _0245_
*381 _0246_
*382 _0247_
*383 _0248_
*384 _0249_
*385 _0250_
*386 _0251_
*387 _0252_
*388 _0253_
*389 _0254_
*390 _0255_
*391 _0256_
*392 _0257_
*393 _0258_
*394 _0259_
*395 _0260_
*396 _0261_
*397 _0262_
*398 _0263_
*399 _0264_
*400 _0265_
*401 _0266_
*402 _0267_
*403 _0268_
*404 _0269_
*405 _0270_
*406 _0271_
*407 _0272_
*408 _0273_
*409 _0274_
*410 _0275_
*411 _0276_
*412 _0277_
*413 _0278_
*414 _0279_
*415 _0280_
*416 _0281_
*417 _0282_
*418 _0283_
*419 _0284_
*420 _0285_
*421 _0286_
*422 _0287_
*423 _0288_
*424 _0289_
*425 _0290_
*426 _0291_
*427 _0292_
*428 _0293_
*429 _0294_
*430 _0295_
*431 _0296_
*432 _0297_
*433 _0298_
*434 _0299_
*435 _0300_
*436 _0301_
*437 _0302_
*438 _0303_
*439 _0304_
*440 _0305_
*441 _0306_
*442 _0307_
*443 _0308_
*444 _0309_
*445 _0310_
*446 _0311_
*447 _0312_
*448 _0313_
*449 _0314_
*450 _0315_
*451 _0316_
*452 _0317_
*453 _0318_
*454 _0319_
*455 _0320_
*456 _0321_
*457 _0322_
*458 _0323_
*459 _0324_
*460 _0325_
*461 _0326_
*462 _0327_
*463 _0328_
*464 _0329_
*465 _0330_
*466 _0331_
*467 _0332_
*468 _0333_
*469 _0334_
*470 _0335_
*471 _0336_
*472 _0337_
*473 _0338_
*474 _0339_
*475 _0340_
*476 _0341_
*477 _0342_
*478 _0343_
*479 _0344_
*480 _0345_
*481 _0346_
*482 _0347_
*483 _0348_
*484 _0349_
*485 _0350_
*486 _0351_
*487 _0352_
*488 _0353_
*489 _0354_
*490 _0355_
*491 _0356_
*492 _0357_
*493 _0358_
*494 _0359_
*495 _0360_
*496 _0361_
*497 _0362_
*498 _0363_
*499 _0364_
*500 _0365_
*501 _0366_
*502 _0367_
*503 _0368_
*504 _0369_
*505 _0370_
*506 _0371_
*507 _0372_
*508 _0373_
*509 _0374_
*510 _0375_
*511 _0376_
*512 _0377_
*513 _0378_
*514 _0379_
*515 _0380_
*516 _0381_
*517 _0382_
*518 _0383_
*519 _0384_
*520 _0385_
*521 _0386_
*522 _0387_
*523 _0388_
*524 _0389_
*525 _0390_
*526 _0391_
*527 _0392_
*528 _0393_
*529 _0394_
*530 _0395_
*531 _0396_
*532 _0397_
*533 _0398_
*534 _0399_
*535 _0400_
*536 _0401_
*537 _0402_
*538 _0403_
*539 _0404_
*540 _0405_
*541 _0406_
*542 _0407_
*543 _0408_
*544 _0409_
*545 _0410_
*546 _0411_
*547 _0412_
*548 _0413_
*549 _0414_
*550 _0415_
*551 _0416_
*552 _0417_
*553 _0418_
*554 _0419_
*555 _0420_
*556 _0421_
*557 _0422_
*558 _0423_
*559 _0424_
*560 _0425_
*561 _0426_
*562 _0427_
*563 _0428_
*564 _0429_
*565 _0430_
*566 _0431_
*567 _0432_
*568 _0433_
*569 _0434_
*570 _0435_
*571 _0436_
*572 _0437_
*573 _0438_
*574 _0439_
*575 _0440_
*576 _0441_
*577 _0442_
*578 _0443_
*579 _0444_
*580 _0445_
*581 _0446_
*582 _0447_
*583 _0448_
*584 _0449_
*585 _0450_
*586 _0451_
*587 _0452_
*588 _0453_
*589 _0454_
*590 _0455_
*591 _0456_
*592 _0457_
*593 _0458_
*594 _0459_
*595 _0460_
*596 _0461_
*597 _0462_
*598 _0463_
*599 _0464_
*600 _0465_
*601 _0466_
*602 _0467_
*603 _0468_
*604 _0469_
*605 _0470_
*606 _0471_
*607 _0472_
*608 _0473_
*609 _0474_
*610 _0475_
*611 _0476_
*612 _0477_
*613 _0478_
*614 _0479_
*615 _0480_
*616 _0481_
*617 _0482_
*618 _0483_
*619 _0484_
*620 _0485_
*621 _0486_
*622 _0487_
*623 _0488_
*624 _0489_
*625 _0490_
*626 _0491_
*627 _0492_
*628 _0493_
*629 _0494_
*630 _0495_
*631 _0496_
*632 _0497_
*633 _0498_
*634 _0499_
*635 _0500_
*636 _0501_
*637 _0502_
*638 _0503_
*639 _0504_
*640 _0505_
*641 _0506_
*642 _0507_
*643 _0508_
*644 _0509_
*645 _0510_
*646 _0511_
*647 _0512_
*648 _0513_
*649 _0514_
*650 _0515_
*651 _0516_
*652 _0517_
*653 _0518_
*654 _0519_
*655 _0520_
*656 _0521_
*657 _0522_
*658 _0523_
*659 _0524_
*660 _0525_
*661 _0526_
*662 _0527_
*663 _0528_
*664 _0529_
*665 _0530_
*666 _0531_
*667 _0532_
*668 _0533_
*669 _0534_
*670 _0535_
*671 _0536_
*672 _0537_
*673 _0538_
*674 _0539_
*675 _0540_
*676 _0541_
*677 _0542_
*678 net1
*679 net10
*680 net11
*681 net12
*682 net13
*683 net14
*684 net15
*685 net16
*686 net17
*687 net18
*688 net19
*689 net2
*690 net20
*691 net21
*692 net22
*693 net23
*694 net24
*695 net25
*696 net26
*697 net27
*698 net28
*699 net29
*700 net3
*701 net30
*702 net31
*703 net32
*704 net33
*705 net34
*706 net35
*707 net36
*708 net4
*709 net5
*710 net6
*711 net7
*712 net8
*713 net9
*714 ANTENNA__0545__B1
*715 ANTENNA__0548__A
*716 ANTENNA__0550__B1
*717 ANTENNA__0552__A
*718 ANTENNA__0554__C1
*719 ANTENNA__0556__B1
*720 ANTENNA__0558__A
*721 ANTENNA__0564__B1
*722 ANTENNA__0567__A
*723 ANTENNA__0569__B1
*724 ANTENNA__0571__A
*725 ANTENNA__0573__C1
*726 ANTENNA__0575__B1
*727 ANTENNA__0577__A
*728 ANTENNA__0589__A
*729 ANTENNA__0590__A
*730 ANTENNA__0591__B1
*731 ANTENNA__0593__B1
*732 ANTENNA__0595__A
*733 ANTENNA__0597__A
*734 ANTENNA__0599__B1
*735 ANTENNA__0601__A
*736 ANTENNA__0603__A
*737 ANTENNA__0605__B1
*738 ANTENNA__0607__A
*739 ANTENNA__0609__A
*740 ANTENNA__0611__B1
*741 ANTENNA__0613__A
*742 ANTENNA__0615__B1
*743 ANTENNA__0617__B1
*744 ANTENNA__0619__B
*745 ANTENNA__0626__B
*746 ANTENNA__0631__A
*747 ANTENNA__0631__B
*748 ANTENNA__0631__C
*749 ANTENNA__0631__D
*750 ANTENNA__0632__A
*751 ANTENNA__0632__B
*752 ANTENNA__0632__C
*753 ANTENNA__0632__D
*754 ANTENNA__0633__A
*755 ANTENNA__0633__C
*756 ANTENNA__0633__D
*757 ANTENNA__0635__A
*758 ANTENNA__0635__B
*759 ANTENNA__0636__A
*760 ANTENNA__0636__B
*761 ANTENNA__0638__A
*762 ANTENNA__0638__B
*763 ANTENNA__0639__B
*764 ANTENNA__0641__B
*765 ANTENNA__0642__A
*766 ANTENNA__0642__B
*767 ANTENNA__0646__B
*768 ANTENNA__0647__A
*769 ANTENNA__0647__B
*770 ANTENNA__0648__A
*771 ANTENNA__0648__B
*772 ANTENNA__0649__A
*773 ANTENNA__0649__B
*774 ANTENNA__0652__A
*775 ANTENNA__0652__B
*776 ANTENNA__0653__A1
*777 ANTENNA__0653__B2
*778 ANTENNA__0661__B1
*779 ANTENNA__0661__C1
*780 ANTENNA__0668__A
*781 ANTENNA__0668__B
*782 ANTENNA__0669__A
*783 ANTENNA__0683__A
*784 ANTENNA__0683__B
*785 ANTENNA__0685__A
*786 ANTENNA__0685__B
*787 ANTENNA__0687__A
*788 ANTENNA__0687__B
*789 ANTENNA__0688__A1
*790 ANTENNA__0688__A2
*791 ANTENNA__0689__A
*792 ANTENNA__0689__B
*793 ANTENNA__0690__A
*794 ANTENNA__0690__B
*795 ANTENNA__0692__A
*796 ANTENNA__0692__B
*797 ANTENNA__0693__A
*798 ANTENNA__0693__B
*799 ANTENNA__0696__A
*800 ANTENNA__0696__B
*801 ANTENNA__0696__C
*802 ANTENNA__0696__D
*803 ANTENNA__0697__A
*804 ANTENNA__0697__B
*805 ANTENNA__0697__C
*806 ANTENNA__0697__D
*807 ANTENNA__0699__A
*808 ANTENNA__0699__B
*809 ANTENNA__0700__A
*810 ANTENNA__0700__B
*811 ANTENNA__0704__A
*812 ANTENNA__0704__B
*813 ANTENNA__0705__A
*814 ANTENNA__0705__B
*815 ANTENNA__0708__A
*816 ANTENNA__0708__B
*817 ANTENNA__0710__A
*818 ANTENNA__0710__B
*819 ANTENNA__0711__A1
*820 ANTENNA__0711__A2
*821 ANTENNA__0711__B1
*822 ANTENNA__0711__B2
*823 ANTENNA__0712__A
*824 ANTENNA__0712__B
*825 ANTENNA__0712__C
*826 ANTENNA__0712__D
*827 ANTENNA__0713__A
*828 ANTENNA__0713__B
*829 ANTENNA__0713__C
*830 ANTENNA__0713__D
*831 ANTENNA__0721__A
*832 ANTENNA__0721__B
*833 ANTENNA__0722__A
*834 ANTENNA__0722__B
*835 ANTENNA__0723__A1
*836 ANTENNA__0729__A
*837 ANTENNA__0729__B
*838 ANTENNA__0740__A
*839 ANTENNA__0740__B
*840 ANTENNA__0745__B
*841 ANTENNA__0748__A
*842 ANTENNA__0748__B
*843 ANTENNA__0749__A1
*844 ANTENNA__0749__B1
*845 ANTENNA__0749__C1
*846 ANTENNA__0750__A
*847 ANTENNA__0750__B
*848 ANTENNA__0751__B
*849 ANTENNA__0754__A1
*850 ANTENNA__0754__B1
*851 ANTENNA__0754__C1
*852 ANTENNA__0756__A1
*853 ANTENNA__0756__B1
*854 ANTENNA__0758__A
*855 ANTENNA__0758__B
*856 ANTENNA__0759__A
*857 ANTENNA__0759__B
*858 ANTENNA__0760__A1
*859 ANTENNA__0760__B1
*860 ANTENNA__0761__A
*861 ANTENNA__0761__B
*862 ANTENNA__0762__A
*863 ANTENNA__0762__B
*864 ANTENNA__0762__C_N
*865 ANTENNA__0763__A
*866 ANTENNA__0764__B
*867 ANTENNA__0768__B
*868 ANTENNA__0769__A
*869 ANTENNA__0769__B
*870 ANTENNA__0770__A
*871 ANTENNA__0770__B
*872 ANTENNA__0771__A
*873 ANTENNA__0771__B
*874 ANTENNA__0772__A1
*875 ANTENNA__0772__A2
*876 ANTENNA__0773__A
*877 ANTENNA__0773__B
*878 ANTENNA__0774__A1
*879 ANTENNA__0774__A2
*880 ANTENNA__0778__A
*881 ANTENNA__0778__B
*882 ANTENNA__0779__A
*883 ANTENNA__0779__B
*884 ANTENNA__0779__C
*885 ANTENNA__0779__D
*886 ANTENNA__0781__A1
*887 ANTENNA__0781__A2
*888 ANTENNA__0785__A
*889 ANTENNA__0785__B
*890 ANTENNA__0786__A
*891 ANTENNA__0786__B
*892 ANTENNA__0789__A
*893 ANTENNA__0789__B
*894 ANTENNA__0790__A
*895 ANTENNA__0790__B
*896 ANTENNA__0793__A
*897 ANTENNA__0793__B
*898 ANTENNA__0794__A
*899 ANTENNA__0794__B
*900 ANTENNA__0797__A
*901 ANTENNA__0797__B
*902 ANTENNA__0798__A1
*903 ANTENNA__0799__A_N
*904 ANTENNA__0799__B
*905 ANTENNA__0800__B1
*906 ANTENNA__0801__A1
*907 ANTENNA__0802__A1
*908 ANTENNA__0804__A
*909 ANTENNA__0805__A
*910 ANTENNA__0805__B
*911 ANTENNA__0807__A_N
*912 ANTENNA__0807__B
*913 ANTENNA__0808__A1
*914 ANTENNA__0808__A2
*915 ANTENNA__0808__B1_N
*916 ANTENNA__0809__A_N
*917 ANTENNA__0809__B
*918 ANTENNA__0809__C
*919 ANTENNA__0810__A1
*920 ANTENNA__0810__C1
*921 ANTENNA__0838__A
*922 ANTENNA__0838__B
*923 ANTENNA__0839__B
*924 ANTENNA__0841__A
*925 ANTENNA__0842__B
*926 ANTENNA__0843__A1
*927 ANTENNA__0843__B1
*928 ANTENNA__0845__A1
*929 ANTENNA__0846__A
*930 ANTENNA__0847__A
*931 ANTENNA__0847__C
*932 ANTENNA__0847__D
*933 ANTENNA__0850__A1
*934 ANTENNA__0857__A
*935 ANTENNA__0857__B
*936 ANTENNA__0857__C
*937 ANTENNA__0857__D
*938 ANTENNA__0858__A
*939 ANTENNA__0858__B
*940 ANTENNA__0858__C
*941 ANTENNA__0858__D
*942 ANTENNA__0860__A
*943 ANTENNA__0860__B
*944 ANTENNA__0861__A
*945 ANTENNA__0861__B
*946 ANTENNA__0862__A
*947 ANTENNA__0862__B
*948 ANTENNA__0863__C1
*949 ANTENNA__0863__D1
*950 ANTENNA__0864__A1
*951 ANTENNA__0864__A2
*952 ANTENNA__0866__A
*953 ANTENNA__0866__B
*954 ANTENNA__0866__C
*955 ANTENNA__0866__D
*956 ANTENNA__0867__A
*957 ANTENNA__0867__B
*958 ANTENNA__0868__A
*959 ANTENNA__0868__B
*960 ANTENNA__0870__A
*961 ANTENNA__0870__B
*962 ANTENNA__0871__A
*963 ANTENNA__0871__B
*964 ANTENNA__0874__A
*965 ANTENNA__0874__B
*966 ANTENNA__0875__A
*967 ANTENNA__0875__B
*968 ANTENNA__0876__A
*969 ANTENNA__0877__A1
*970 ANTENNA__0877__A3
*971 ANTENNA__0879__A
*972 ANTENNA__0879__B
*973 ANTENNA__0882__A
*974 ANTENNA__0882__B
*975 ANTENNA__0886__A
*976 ANTENNA__0886__B
*977 ANTENNA__0887__A
*978 ANTENNA__0887__B
*979 ANTENNA__0895__A1
*980 ANTENNA__0902__A
*981 ANTENNA__0902__B
*982 ANTENNA__0902__C
*983 ANTENNA__0902__D
*984 ANTENNA__0903__A1
*985 ANTENNA__0908__A
*986 ANTENNA__0908__B
*987 ANTENNA__0910__A
*988 ANTENNA__0910__B
*989 ANTENNA__0926__A
*990 ANTENNA__0926__B
*991 ANTENNA__0954__B
*992 ANTENNA__0955__A1
*993 ANTENNA__0955__A2
*994 ANTENNA__0955__A3
*995 ANTENNA__0955__A4
*996 ANTENNA__0956__A
*997 ANTENNA__0956__B
*998 ANTENNA__0964__B1
*999 ANTENNA__0964__C1
*1000 ANTENNA__0984__A1
*1001 ANTENNA__0985__B
*1002 ANTENNA__0986__B2
*1003 ANTENNA__0987__A
*1004 ANTENNA__0988__A1_N
*1005 ANTENNA__0988__A2_N
*1006 ANTENNA__0990__A1
*1007 ANTENNA__0991__A
*1008 ANTENNA__0991__B
*1009 ANTENNA__0992__A
*1010 ANTENNA__0992__B
*1011 ANTENNA__1010__A1
*1012 ANTENNA__1010__A2
*1013 ANTENNA__1048__A
*1014 ANTENNA__1048__B
*1015 ANTENNA__1049__A
*1016 ANTENNA__1049__B
*1017 ANTENNA__1052__A
*1018 ANTENNA__1052__C
*1019 ANTENNA__1053__A1
*1020 ANTENNA__1055__A1
*1021 ANTENNA__1066__A
*1022 ANTENNA__1067__A
*1023 ANTENNA__1068__A
*1024 ANTENNA__1069__A
*1025 ANTENNA__1070__A
*1026 ANTENNA__1071__A
*1027 ANTENNA__1072__A
*1028 ANTENNA__1073__A
*1029 ANTENNA__1074__A
*1030 ANTENNA__1075__A
*1031 ANTENNA__1076__A
*1032 ANTENNA__1077__A
*1033 ANTENNA__1078__A
*1034 ANTENNA__1079__A
*1035 ANTENNA__1080__A
*1036 ANTENNA__1081__A
*1037 ANTENNA__1082__A
*1038 ANTENNA__1083__A
*1039 ANTENNA__1084__A
*1040 ANTENNA__1085__A
*1041 ANTENNA__1086__A
*1042 ANTENNA__1087__A
*1043 ANTENNA__1088__A
*1044 ANTENNA__1089__A
*1045 ANTENNA__1090__A
*1046 ANTENNA__1091__A
*1047 ANTENNA__1092__A
*1048 ANTENNA__1093__A
*1049 ANTENNA__1094__A
*1050 ANTENNA__1095__A
*1051 ANTENNA__1096__A
*1052 ANTENNA__1097__A
*1053 ANTENNA__1098__A
*1054 ANTENNA__1099__A
*1055 ANTENNA__1100__A
*1056 ANTENNA__1101__A
*1057 ANTENNA__1102__A
*1058 ANTENNA__1103__A
*1059 ANTENNA__1104__A
*1060 ANTENNA__1105__A
*1061 ANTENNA__1106__A
*1062 ANTENNA__1107__A
*1063 ANTENNA__1108__A
*1064 ANTENNA__1109__A
*1065 ANTENNA__1110__A
*1066 ANTENNA__1111__A
*1067 ANTENNA__1112__A
*1068 ANTENNA__1113__A
*1069 ANTENNA__1114__A
*1070 ANTENNA__1115__A
*1071 ANTENNA__1116__A
*1072 ANTENNA__1117__A
*1073 ANTENNA__1118__A
*1074 ANTENNA__1119__A
*1075 ANTENNA__1120__A
*1076 ANTENNA__1121__A
*1077 ANTENNA__1122__A
*1078 ANTENNA__1123__A
*1079 ANTENNA__1124__A
*1080 ANTENNA__1125__A
*1081 ANTENNA__1126__A
*1082 ANTENNA__1127__A
*1083 ANTENNA__1128__A
*1084 ANTENNA__1129__A
*1085 ANTENNA__1130__A
*1086 ANTENNA__1131__A
*1087 ANTENNA__1132__A
*1088 ANTENNA__1133__A
*1089 ANTENNA__1134__CLK
*1090 ANTENNA__1135__CLK
*1091 ANTENNA__1136__CLK
*1092 ANTENNA__1137__CLK
*1093 ANTENNA__1138__CLK
*1094 ANTENNA__1139__CLK
*1095 ANTENNA__1140__CLK
*1096 ANTENNA__1141__CLK
*1097 ANTENNA__1142__CLK
*1098 ANTENNA__1143__CLK
*1099 ANTENNA__1144__CLK
*1100 ANTENNA__1145__CLK
*1101 ANTENNA__1146__CLK
*1102 ANTENNA__1147__CLK
*1103 ANTENNA__1148__CLK
*1104 ANTENNA__1149__CLK
*1105 ANTENNA__1150__CLK
*1106 ANTENNA__1151__CLK
*1107 ANTENNA__1152__CLK
*1108 ANTENNA__1153__CLK
*1109 ANTENNA__1154__CLK
*1110 ANTENNA__1155__CLK
*1111 ANTENNA__1156__CLK
*1112 ANTENNA__1157__CLK
*1113 ANTENNA__1158__CLK
*1114 ANTENNA__1159__CLK
*1115 ANTENNA__1160__CLK
*1116 ANTENNA__1161__CLK
*1117 ANTENNA__1162__CLK
*1118 ANTENNA__1163__CLK
*1119 ANTENNA__1164__CLK
*1120 ANTENNA__1165__CLK
*1121 ANTENNA__1166__CLK
*1122 ANTENNA__1167__CLK
*1123 ANTENNA__1168__CLK
*1124 ANTENNA__1169__CLK
*1125 ANTENNA__1170__CLK
*1126 ANTENNA__1171__CLK
*1127 ANTENNA__1172__CLK
*1128 ANTENNA__1173__CLK
*1129 ANTENNA__1174__CLK
*1130 ANTENNA__1175__CLK
*1131 ANTENNA__1176__CLK
*1132 ANTENNA__1177__CLK
*1133 ANTENNA__1178__CLK
*1134 ANTENNA__1179__CLK
*1135 ANTENNA__1180__CLK
*1136 ANTENNA__1181__CLK
*1137 ANTENNA__1182__CLK
*1138 ANTENNA__1183__CLK
*1139 ANTENNA__1184__CLK
*1140 ANTENNA__1185__CLK
*1141 ANTENNA__1186__CLK
*1142 ANTENNA__1187__CLK
*1143 ANTENNA__1188__CLK
*1144 ANTENNA__1189__CLK
*1145 ANTENNA__1190__CLK
*1146 ANTENNA__1191__CLK
*1147 ANTENNA__1192__CLK
*1148 ANTENNA__1193__CLK
*1149 ANTENNA__1194__CLK
*1150 ANTENNA__1195__CLK
*1151 ANTENNA__1196__CLK
*1152 ANTENNA__1197__CLK
*1153 ANTENNA__1198__CLK
*1154 FILLER_0_0_103
*1155 FILLER_0_0_111
*1156 FILLER_0_0_113
*1157 FILLER_0_0_125
*1158 FILLER_0_0_137
*1159 FILLER_0_0_141
*1160 FILLER_0_0_153
*1161 FILLER_0_0_165
*1162 FILLER_0_0_169
*1163 FILLER_0_0_18
*1164 FILLER_0_0_181
*1165 FILLER_0_0_193
*1166 FILLER_0_0_197
*1167 FILLER_0_0_209
*1168 FILLER_0_0_221
*1169 FILLER_0_0_225
*1170 FILLER_0_0_237
*1171 FILLER_0_0_249
*1172 FILLER_0_0_253
*1173 FILLER_0_0_26
*1174 FILLER_0_0_265
*1175 FILLER_0_0_277
*1176 FILLER_0_0_281
*1177 FILLER_0_0_288
*1178 FILLER_0_0_29
*1179 FILLER_0_0_300
*1180 FILLER_0_0_309
*1181 FILLER_0_0_321
*1182 FILLER_0_0_333
*1183 FILLER_0_0_337
*1184 FILLER_0_0_349
*1185 FILLER_0_0_361
*1186 FILLER_0_0_365
*1187 FILLER_0_0_41
*1188 FILLER_0_0_53
*1189 FILLER_0_0_57
*1190 FILLER_0_0_6
*1191 FILLER_0_0_69
*1192 FILLER_0_0_81
*1193 FILLER_0_0_85
*1194 FILLER_0_10_109
*1195 FILLER_0_10_121
*1196 FILLER_0_10_133
*1197 FILLER_0_10_139
*1198 FILLER_0_10_141
*1199 FILLER_0_10_15
*1200 FILLER_0_10_153
*1201 FILLER_0_10_165
*1202 FILLER_0_10_177
*1203 FILLER_0_10_189
*1204 FILLER_0_10_195
*1205 FILLER_0_10_197
*1206 FILLER_0_10_209
*1207 FILLER_0_10_221
*1208 FILLER_0_10_233
*1209 FILLER_0_10_245
*1210 FILLER_0_10_251
*1211 FILLER_0_10_253
*1212 FILLER_0_10_265
*1213 FILLER_0_10_27
*1214 FILLER_0_10_277
*1215 FILLER_0_10_289
*1216 FILLER_0_10_29
*1217 FILLER_0_10_3
*1218 FILLER_0_10_301
*1219 FILLER_0_10_307
*1220 FILLER_0_10_309
*1221 FILLER_0_10_321
*1222 FILLER_0_10_333
*1223 FILLER_0_10_341
*1224 FILLER_0_10_365
*1225 FILLER_0_10_41
*1226 FILLER_0_10_53
*1227 FILLER_0_10_65
*1228 FILLER_0_10_77
*1229 FILLER_0_10_83
*1230 FILLER_0_10_85
*1231 FILLER_0_10_97
*1232 FILLER_0_11_105
*1233 FILLER_0_11_111
*1234 FILLER_0_11_113
*1235 FILLER_0_11_125
*1236 FILLER_0_11_137
*1237 FILLER_0_11_149
*1238 FILLER_0_11_15
*1239 FILLER_0_11_161
*1240 FILLER_0_11_167
*1241 FILLER_0_11_169
*1242 FILLER_0_11_181
*1243 FILLER_0_11_193
*1244 FILLER_0_11_205
*1245 FILLER_0_11_217
*1246 FILLER_0_11_223
*1247 FILLER_0_11_225
*1248 FILLER_0_11_237
*1249 FILLER_0_11_249
*1250 FILLER_0_11_261
*1251 FILLER_0_11_27
*1252 FILLER_0_11_273
*1253 FILLER_0_11_279
*1254 FILLER_0_11_293
*1255 FILLER_0_11_3
*1256 FILLER_0_11_305
*1257 FILLER_0_11_317
*1258 FILLER_0_11_329
*1259 FILLER_0_11_335
*1260 FILLER_0_11_337
*1261 FILLER_0_11_364
*1262 FILLER_0_11_39
*1263 FILLER_0_11_51
*1264 FILLER_0_11_55
*1265 FILLER_0_11_57
*1266 FILLER_0_11_69
*1267 FILLER_0_11_81
*1268 FILLER_0_11_93
*1269 FILLER_0_12_109
*1270 FILLER_0_12_121
*1271 FILLER_0_12_133
*1272 FILLER_0_12_139
*1273 FILLER_0_12_141
*1274 FILLER_0_12_153
*1275 FILLER_0_12_165
*1276 FILLER_0_12_177
*1277 FILLER_0_12_18
*1278 FILLER_0_12_189
*1279 FILLER_0_12_195
*1280 FILLER_0_12_197
*1281 FILLER_0_12_209
*1282 FILLER_0_12_221
*1283 FILLER_0_12_233
*1284 FILLER_0_12_237
*1285 FILLER_0_12_240
*1286 FILLER_0_12_244
*1287 FILLER_0_12_26
*1288 FILLER_0_12_29
*1289 FILLER_0_12_295
*1290 FILLER_0_12_299
*1291 FILLER_0_12_307
*1292 FILLER_0_12_309
*1293 FILLER_0_12_321
*1294 FILLER_0_12_333
*1295 FILLER_0_12_348
*1296 FILLER_0_12_354
*1297 FILLER_0_12_358
*1298 FILLER_0_12_365
*1299 FILLER_0_12_41
*1300 FILLER_0_12_53
*1301 FILLER_0_12_6
*1302 FILLER_0_12_65
*1303 FILLER_0_12_77
*1304 FILLER_0_12_83
*1305 FILLER_0_12_85
*1306 FILLER_0_12_97
*1307 FILLER_0_13_105
*1308 FILLER_0_13_111
*1309 FILLER_0_13_113
*1310 FILLER_0_13_125
*1311 FILLER_0_13_137
*1312 FILLER_0_13_149
*1313 FILLER_0_13_15
*1314 FILLER_0_13_161
*1315 FILLER_0_13_167
*1316 FILLER_0_13_169
*1317 FILLER_0_13_181
*1318 FILLER_0_13_185
*1319 FILLER_0_13_188
*1320 FILLER_0_13_20
*1321 FILLER_0_13_200
*1322 FILLER_0_13_212
*1323 FILLER_0_13_225
*1324 FILLER_0_13_229
*1325 FILLER_0_13_233
*1326 FILLER_0_13_237
*1327 FILLER_0_13_24
*1328 FILLER_0_13_241
*1329 FILLER_0_13_247
*1330 FILLER_0_13_251
*1331 FILLER_0_13_255
*1332 FILLER_0_13_259
*1333 FILLER_0_13_271
*1334 FILLER_0_13_279
*1335 FILLER_0_13_281
*1336 FILLER_0_13_288
*1337 FILLER_0_13_3
*1338 FILLER_0_13_318
*1339 FILLER_0_13_330
*1340 FILLER_0_13_347
*1341 FILLER_0_13_351
*1342 FILLER_0_13_36
*1343 FILLER_0_13_48
*1344 FILLER_0_13_57
*1345 FILLER_0_13_69
*1346 FILLER_0_13_81
*1347 FILLER_0_13_93
*1348 FILLER_0_14_109
*1349 FILLER_0_14_121
*1350 FILLER_0_14_133
*1351 FILLER_0_14_139
*1352 FILLER_0_14_141
*1353 FILLER_0_14_153
*1354 FILLER_0_14_165
*1355 FILLER_0_14_177
*1356 FILLER_0_14_183
*1357 FILLER_0_14_186
*1358 FILLER_0_14_195
*1359 FILLER_0_14_202
*1360 FILLER_0_14_206
*1361 FILLER_0_14_216
*1362 FILLER_0_14_220
*1363 FILLER_0_14_224
*1364 FILLER_0_14_228
*1365 FILLER_0_14_234
*1366 FILLER_0_14_238
*1367 FILLER_0_14_242
*1368 FILLER_0_14_246
*1369 FILLER_0_14_258
*1370 FILLER_0_14_262
*1371 FILLER_0_14_266
*1372 FILLER_0_14_29
*1373 FILLER_0_14_299
*1374 FILLER_0_14_3
*1375 FILLER_0_14_33
*1376 FILLER_0_14_339
*1377 FILLER_0_14_343
*1378 FILLER_0_14_45
*1379 FILLER_0_14_57
*1380 FILLER_0_14_69
*1381 FILLER_0_14_81
*1382 FILLER_0_14_85
*1383 FILLER_0_14_97
*1384 FILLER_0_15_109
*1385 FILLER_0_15_113
*1386 FILLER_0_15_117
*1387 FILLER_0_15_129
*1388 FILLER_0_15_141
*1389 FILLER_0_15_15
*1390 FILLER_0_15_153
*1391 FILLER_0_15_165
*1392 FILLER_0_15_169
*1393 FILLER_0_15_181
*1394 FILLER_0_15_187
*1395 FILLER_0_15_216
*1396 FILLER_0_15_225
*1397 FILLER_0_15_231
*1398 FILLER_0_15_241
*1399 FILLER_0_15_245
*1400 FILLER_0_15_249
*1401 FILLER_0_15_253
*1402 FILLER_0_15_27
*1403 FILLER_0_15_278
*1404 FILLER_0_15_287
*1405 FILLER_0_15_299
*1406 FILLER_0_15_3
*1407 FILLER_0_15_309
*1408 FILLER_0_15_317
*1409 FILLER_0_15_325
*1410 FILLER_0_15_337
*1411 FILLER_0_15_341
*1412 FILLER_0_15_344
*1413 FILLER_0_15_348
*1414 FILLER_0_15_356
*1415 FILLER_0_15_361
*1416 FILLER_0_15_365
*1417 FILLER_0_15_39
*1418 FILLER_0_15_51
*1419 FILLER_0_15_55
*1420 FILLER_0_15_57
*1421 FILLER_0_15_69
*1422 FILLER_0_15_81
*1423 FILLER_0_16_105
*1424 FILLER_0_16_117
*1425 FILLER_0_16_129
*1426 FILLER_0_16_137
*1427 FILLER_0_16_141
*1428 FILLER_0_16_153
*1429 FILLER_0_16_165
*1430 FILLER_0_16_177
*1431 FILLER_0_16_18
*1432 FILLER_0_16_187
*1433 FILLER_0_16_191
*1434 FILLER_0_16_195
*1435 FILLER_0_16_197
*1436 FILLER_0_16_205
*1437 FILLER_0_16_208
*1438 FILLER_0_16_212
*1439 FILLER_0_16_217
*1440 FILLER_0_16_221
*1441 FILLER_0_16_225
*1442 FILLER_0_16_231
*1443 FILLER_0_16_235
*1444 FILLER_0_16_26
*1445 FILLER_0_16_274
*1446 FILLER_0_16_283
*1447 FILLER_0_16_29
*1448 FILLER_0_16_291
*1449 FILLER_0_16_297
*1450 FILLER_0_16_300
*1451 FILLER_0_16_309
*1452 FILLER_0_16_317
*1453 FILLER_0_16_320
*1454 FILLER_0_16_341
*1455 FILLER_0_16_41
*1456 FILLER_0_16_53
*1457 FILLER_0_16_6
*1458 FILLER_0_16_65
*1459 FILLER_0_16_77
*1460 FILLER_0_16_83
*1461 FILLER_0_16_85
*1462 FILLER_0_16_93
*1463 FILLER_0_17_107
*1464 FILLER_0_17_111
*1465 FILLER_0_17_113
*1466 FILLER_0_17_125
*1467 FILLER_0_17_131
*1468 FILLER_0_17_140
*1469 FILLER_0_17_152
*1470 FILLER_0_17_160
*1471 FILLER_0_17_178
*1472 FILLER_0_17_182
*1473 FILLER_0_17_193
*1474 FILLER_0_17_199
*1475 FILLER_0_17_203
*1476 FILLER_0_17_207
*1477 FILLER_0_17_211
*1478 FILLER_0_17_215
*1479 FILLER_0_17_221
*1480 FILLER_0_17_238
*1481 FILLER_0_17_242
*1482 FILLER_0_17_246
*1483 FILLER_0_17_250
*1484 FILLER_0_17_254
*1485 FILLER_0_17_258
*1486 FILLER_0_17_262
*1487 FILLER_0_17_266
*1488 FILLER_0_17_297
*1489 FILLER_0_17_3
*1490 FILLER_0_17_326
*1491 FILLER_0_17_330
*1492 FILLER_0_17_337
*1493 FILLER_0_17_341
*1494 FILLER_0_17_349
*1495 FILLER_0_17_35
*1496 FILLER_0_17_39
*1497 FILLER_0_17_51
*1498 FILLER_0_17_55
*1499 FILLER_0_17_57
*1500 FILLER_0_17_69
*1501 FILLER_0_17_94
*1502 FILLER_0_18_109
*1503 FILLER_0_18_114
*1504 FILLER_0_18_147
*1505 FILLER_0_18_163
*1506 FILLER_0_18_179
*1507 FILLER_0_18_183
*1508 FILLER_0_18_195
*1509 FILLER_0_18_197
*1510 FILLER_0_18_204
*1511 FILLER_0_18_227
*1512 FILLER_0_18_231
*1513 FILLER_0_18_251
*1514 FILLER_0_18_253
*1515 FILLER_0_18_257
*1516 FILLER_0_18_26
*1517 FILLER_0_18_264
*1518 FILLER_0_18_275
*1519 FILLER_0_18_288
*1520 FILLER_0_18_300
*1521 FILLER_0_18_32
*1522 FILLER_0_18_329
*1523 FILLER_0_18_341
*1524 FILLER_0_18_36
*1525 FILLER_0_18_48
*1526 FILLER_0_18_59
*1527 FILLER_0_18_63
*1528 FILLER_0_18_67
*1529 FILLER_0_18_75
*1530 FILLER_0_18_79
*1531 FILLER_0_18_83
*1532 FILLER_0_18_85
*1533 FILLER_0_18_97
*1534 FILLER_0_19_106
*1535 FILLER_0_19_113
*1536 FILLER_0_19_12
*1537 FILLER_0_19_132
*1538 FILLER_0_19_154
*1539 FILLER_0_19_16
*1540 FILLER_0_19_160
*1541 FILLER_0_19_167
*1542 FILLER_0_19_169
*1543 FILLER_0_19_174
*1544 FILLER_0_19_178
*1545 FILLER_0_19_20
*1546 FILLER_0_19_201
*1547 FILLER_0_19_209
*1548 FILLER_0_19_213
*1549 FILLER_0_19_217
*1550 FILLER_0_19_223
*1551 FILLER_0_19_232
*1552 FILLER_0_19_236
*1553 FILLER_0_19_245
*1554 FILLER_0_19_277
*1555 FILLER_0_19_28
*1556 FILLER_0_19_293
*1557 FILLER_0_19_300
*1558 FILLER_0_19_308
*1559 FILLER_0_19_311
*1560 FILLER_0_19_324
*1561 FILLER_0_19_330
*1562 FILLER_0_19_344
*1563 FILLER_0_19_356
*1564 FILLER_0_19_362
*1565 FILLER_0_19_365
*1566 FILLER_0_19_39
*1567 FILLER_0_19_6
*1568 FILLER_0_19_62
*1569 FILLER_0_19_85
*1570 FILLER_0_19_92
*1571 FILLER_0_19_96
*1572 FILLER_0_1_105
*1573 FILLER_0_1_111
*1574 FILLER_0_1_113
*1575 FILLER_0_1_125
*1576 FILLER_0_1_137
*1577 FILLER_0_1_149
*1578 FILLER_0_1_15
*1579 FILLER_0_1_161
*1580 FILLER_0_1_167
*1581 FILLER_0_1_169
*1582 FILLER_0_1_181
*1583 FILLER_0_1_193
*1584 FILLER_0_1_205
*1585 FILLER_0_1_217
*1586 FILLER_0_1_223
*1587 FILLER_0_1_225
*1588 FILLER_0_1_237
*1589 FILLER_0_1_249
*1590 FILLER_0_1_261
*1591 FILLER_0_1_27
*1592 FILLER_0_1_273
*1593 FILLER_0_1_279
*1594 FILLER_0_1_281
*1595 FILLER_0_1_293
*1596 FILLER_0_1_3
*1597 FILLER_0_1_305
*1598 FILLER_0_1_317
*1599 FILLER_0_1_329
*1600 FILLER_0_1_335
*1601 FILLER_0_1_337
*1602 FILLER_0_1_349
*1603 FILLER_0_1_361
*1604 FILLER_0_1_367
*1605 FILLER_0_1_39
*1606 FILLER_0_1_51
*1607 FILLER_0_1_55
*1608 FILLER_0_1_57
*1609 FILLER_0_1_69
*1610 FILLER_0_1_81
*1611 FILLER_0_1_93
*1612 FILLER_0_20_114
*1613 FILLER_0_20_127
*1614 FILLER_0_20_131
*1615 FILLER_0_20_139
*1616 FILLER_0_20_141
*1617 FILLER_0_20_145
*1618 FILLER_0_20_152
*1619 FILLER_0_20_160
*1620 FILLER_0_20_175
*1621 FILLER_0_20_180
*1622 FILLER_0_20_184
*1623 FILLER_0_20_194
*1624 FILLER_0_20_197
*1625 FILLER_0_20_201
*1626 FILLER_0_20_205
*1627 FILLER_0_20_209
*1628 FILLER_0_20_213
*1629 FILLER_0_20_217
*1630 FILLER_0_20_221
*1631 FILLER_0_20_23
*1632 FILLER_0_20_231
*1633 FILLER_0_20_235
*1634 FILLER_0_20_239
*1635 FILLER_0_20_243
*1636 FILLER_0_20_247
*1637 FILLER_0_20_251
*1638 FILLER_0_20_253
*1639 FILLER_0_20_265
*1640 FILLER_0_20_27
*1641 FILLER_0_20_277
*1642 FILLER_0_20_283
*1643 FILLER_0_20_29
*1644 FILLER_0_20_291
*1645 FILLER_0_20_299
*1646 FILLER_0_20_309
*1647 FILLER_0_20_331
*1648 FILLER_0_20_337
*1649 FILLER_0_20_341
*1650 FILLER_0_20_353
*1651 FILLER_0_20_361
*1652 FILLER_0_20_365
*1653 FILLER_0_20_57
*1654 FILLER_0_20_69
*1655 FILLER_0_20_81
*1656 FILLER_0_21_106
*1657 FILLER_0_21_11
*1658 FILLER_0_21_110
*1659 FILLER_0_21_126
*1660 FILLER_0_21_134
*1661 FILLER_0_21_146
*1662 FILLER_0_21_15