*SPEF "ieee 1481-1999"
*DESIGN "vmsu_8bit_top"
*DATE "11:11:11 Fri 11 11, 1111"
*VENDOR "OpenRCX"
*PROGRAM "Parallel Extraction"
*VERSION "1.0"
*DESIGN_FLOW "NAME_SCOPE LOCAL" "PIN_CAP NONE"
*DIVIDER /
*DELIMITER :
*BUS_DELIMITER []
*T_UNIT 1 NS
*C_UNIT 1 PF
*R_UNIT 1 OHM
*L_UNIT 1 HENRY

*NAME_MAP
*1 a[0]
*2 a[1]
*3 a[2]
*4 a[3]
*5 a[4]
*6 a[5]
*7 a[6]
*8 a[7]
*9 b[0]
*10 b[1]
*11 b[2]
*12 b[3]
*13 b[4]
*14 b[5]
*15 b[6]
*16 b[7]
*17 clk
*18 control
*19 p[0]
*20 p[10]
*21 p[11]
*22 p[12]
*23 p[13]
*24 p[14]
*25 p[15]
*26 p[1]
*27 p[2]
*28 p[3]
*29 p[4]
*30 p[5]
*31 p[6]
*32 p[7]
*33 p[8]
*34 p[9]
*35 rst
*38 FA0\.q
*39 FA1\.q
*40 FA2\.q
*41 FA3\.q
*42 FA4\.q
*43 FA5\.q
*44 FA6\.q
*45 FA7\.q
*46 FB0\.q
*47 FB1\.q
*48 FB2\.q
*49 FB3\.q
*50 FB4\.q
*51 FB5\.q
*52 FB6\.q
*53 FB7\.q
*54 FC\.q
*55 FP0\.d
*56 FP1\.d
*57 FP10\.d
*58 FP11\.d
*59 FP12\.d
*60 FP13\.d
*61 FP14\.d
*62 FP15\.d
*63 FP2\.d
*64 FP3\.d
*65 FP4\.d
*66 FP5\.d
*67 FP6\.d
*68 FP7\.d
*69 FP8\.d
*70 FP9\.d
*71 M0\.FAM0\.d
*72 M0\.FAM0\.q
*73 M0\.FAM1\.d
*74 M0\.FAM1\.q
*75 M0\.FAM2\.d
*76 M0\.FAM2\.q
*77 M0\.FAM3\.d
*78 M0\.FAM3\.q
*79 M0\.FAM4\.d
*80 M0\.FAM4\.q
*81 M0\.FAM5\.d
*82 M0\.FAM5\.q
*83 M0\.FAM6\.d
*84 M0\.FAM6\.q
*85 M0\.FAM7\.d
*86 M0\.FAM7\.q
*87 M0\.FBM0\.d
*88 M0\.FBM0\.q
*89 M0\.FBM1\.d
*90 M0\.FBM1\.q
*91 M0\.FBM2\.d
*92 M0\.FBM2\.q
*93 M0\.FBM3\.d
*94 M0\.FBM3\.q
*95 M0\.FBM4\.d
*96 M0\.FBM4\.q
*97 M0\.FBM5\.d
*98 M0\.FBM5\.q
*99 M0\.FBM6\.d
*100 M0\.FBM6\.q
*101 M0\.FBM7\.d
*102 M0\.FBM7\.q
*103 M0\.FCM1\.d
*104 M0\.FCM1\.q
*105 M0\.FCM2\.d
*106 M0\.FCM2\.q
*107 M0\.FCM3\.q
*108 M0\.FCM4\.q
*109 M0\.FPM0\.d
*110 M0\.FPM0\.q
*111 M0\.FPM1\.d
*112 M0\.FPM1\.q
*113 M0\.FPM10\.d
*114 M0\.FPM10\.q
*115 M0\.FPM11\.d
*116 M0\.FPM11\.q
*117 M0\.FPM12\.d
*118 M0\.FPM12\.q
*119 M0\.FPM13\.d
*120 M0\.FPM13\.q
*121 M0\.FPM14\.d
*122 M0\.FPM14\.q
*123 M0\.FPM15\.d
*124 M0\.FPM15\.q
*125 M0\.FPM2\.d
*126 M0\.FPM2\.q
*127 M0\.FPM3\.d
*128 M0\.FPM3\.q
*129 M0\.FPM4\.d
*130 M0\.FPM4\.q
*131 M0\.FPM5\.d
*132 M0\.FPM5\.q
*133 M0\.FPM6\.d
*134 M0\.FPM6\.q
*135 M0\.FPM7\.d
*136 M0\.FPM7\.q
*137 M0\.FPM8\.d
*138 M0\.FPM8\.q
*139 M0\.FPM9\.d
*140 M0\.FPM9\.q
*141 _0000_
*142 _0001_
*143 _0002_
*144 _0003_
*145 _0004_
*146 _0005_
*147 _0006_
*148 _0007_
*149 _0008_
*150 _0009_
*151 _0010_
*152 _0011_
*153 _0012_
*154 _0013_
*155 _0014_
*156 _0015_
*157 _0016_
*158 _0017_
*159 _0018_
*160 _0019_
*161 _0020_
*162 _0021_
*163 _0022_
*164 _0023_
*165 _0024_
*166 _0025_
*167 _0026_
*168 _0027_
*169 _0028_
*170 _0029_
*171 _0030_
*172 _0031_
*173 _0032_
*174 _0033_
*175 _0034_
*176 _0035_
*177 _0036_
*178 _0037_
*179 _0038_
*180 _0039_
*181 _0040_
*182 _0041_
*183 _0042_
*184 _0043_
*185 _0044_
*186 _0045_
*187 _0046_
*188 _0047_
*189 _0048_
*190 _0049_
*191 _0050_
*192 _0051_
*193 _0052_
*194 _0053_
*195 _0054_
*196 _0055_
*197 _0056_
*198 _0057_
*199 _0058_
*200 _0059_
*201 _0060_
*202 _0061_
*203 _0062_
*204 _0063_
*205 _0064_
*206 _0065_
*207 _0066_
*208 _0067_
*209 _0068_
*210 _0069_
*211 _0070_
*212 _0071_
*213 _0072_
*214 _0073_
*215 _0074_
*216 _0075_
*217 _0076_
*218 _0077_
*219 _0078_
*220 _0079_
*221 _0080_
*222 _0081_
*223 _0082_
*224 _0083_
*225 _0084_
*226 _0085_
*227 _0086_
*228 _0087_
*229 _0088_
*230 _0089_
*231 _0090_
*232 _0091_
*233 _0092_
*234 _0093_
*235 _0094_
*236 _0095_
*237 _0096_
*238 _0097_
*239 _0098_
*240 _0099_
*241 _0100_
*242 _0101_
*243 _0102_
*244 _0103_
*245 _0104_
*246 _0105_
*247 _0106_
*248 _0107_
*249 _0108_
*250 _0109_
*251 _0110_
*252 _0111_
*253 _0112_
*254 _0113_
*255 _0114_
*256 _0115_
*257 _0116_
*258 _0117_
*259 _0118_
*260 _0119_
*261 _0120_
*262 _0121_
*263 _0122_
*264 _0123_
*265 _0124_
*266 _0125_
*267 _0126_
*268 _0127_
*269 _0128_
*270 _0129_
*271 _0130_
*272 _0131_
*273 _0132_
*274 _0133_
*275 _0134_
*276 _0135_
*277 _0136_
*278 _0137_
*279 _0138_
*280 _0139_
*281 _0140_
*282 _0141_
*283 _0142_
*284 _0143_
*285 _0144_
*286 _0145_
*287 _0146_
*288 _0147_
*289 _0148_
*290 _0149_
*291 _0150_
*292 _0151_
*293 _0152_
*294 _0153_
*295 _0154_
*296 _0155_
*297 _0156_
*298 _0157_
*299 _0158_
*300 _0159_
*301 _0160_
*302 _0161_
*303 _0162_
*304 _0163_
*305 _0164_
*306 _0165_
*307 _0166_
*308 _0167_
*309 _0168_
*310 _0169_
*311 _0170_
*312 _0171_
*313 _0172_
*314 _0173_
*315 _0174_
*316 _0175_
*317 _0176_
*318 _0177_
*319 _0178_
*320 _0179_
*321 _0180_
*322 _0181_
*323 _0182_
*324 _0183_
*325 _0184_
*326 _0185_
*327 _0186_
*328 _0187_
*329 _0188_
*330 _0189_
*331 _0190_
*332 _0191_
*333 _0192_
*334 _0193_
*335 _0194_
*336 _0195_
*337 _0196_
*338 _0197_
*339 _0198_
*340 _0199_
*341 _0200_
*342 _0201_
*343 _0202_
*344 _0203_
*345 _0204_
*346 _0205_
*347 _0206_
*348 _0207_
*349 _0208_
*350 _0209_
*351 _0210_
*352 _0211_
*353 _0212_
*354 _0213_
*355 _0214_
*356 _0215_
*357 _0216_
*358 _0217_
*359 _0218_
*360 _0219_
*361 _0220_
*362 _0221_
*363 _0222_
*364 _0223_
*365 _0224_
*366 _0225_
*367 _0226_
*368 _0227_
*369 _0228_
*370 _0229_
*371 _0230_
*372 _0231_
*373 _0232_
*374 _0233_
*375 _0234_
*376 _0235_
*377 _0236_
*378 _0237_
*379 _0238_
*380 _0239_
*381 _0240_
*382 _0241_
*383 _0242_
*384 _0243_
*385 _0244_
*386 _0245_
*387 _0246_
*388 _0247_
*389 _0248_
*390 _0249_
*391 _0250_
*392 _0251_
*393 _0252_
*394 _0253_
*395 _0254_
*396 _0255_
*397 _0256_
*398 _0257_
*399 _0258_
*400 _0259_
*401 _0260_
*402 _0261_
*403 _0262_
*404 _0263_
*405 _0264_
*406 _0265_
*407 _0266_
*408 _0267_
*409 _0268_
*410 _0269_
*411 _0270_
*412 _0271_
*413 _0272_
*414 _0273_
*415 _0274_
*416 _0275_
*417 _0276_
*418 _0277_
*419 _0278_
*420 _0279_
*421 _0280_
*422 _0281_
*423 _0282_
*424 _0283_
*425 _0284_
*426 _0285_
*427 _0286_
*428 _0287_
*429 _0288_
*430 _0289_
*431 _0290_
*432 _0291_
*433 _0292_
*434 _0293_
*435 _0294_
*436 _0295_
*437 _0296_
*438 _0297_
*439 _0298_
*440 _0299_
*441 _0300_
*442 _0301_
*443 _0302_
*444 _0303_
*445 _0304_
*446 _0305_
*447 _0306_
*448 _0307_
*449 _0308_
*450 _0309_
*451 _0310_
*452 _0311_
*453 _0312_
*454 _0313_
*455 _0314_
*456 _0315_
*457 _0316_
*458 _0317_
*459 _0318_
*460 _0319_
*461 _0320_
*462 _0321_
*463 _0322_
*464 _0323_
*465 _0324_
*466 _0325_
*467 _0326_
*468 _0327_
*469 _0328_
*470 _0329_
*471 _0330_
*472 _0331_
*473 _0332_
*474 _0333_
*475 _0334_
*476 _0335_
*477 _0336_
*478 _0337_
*479 _0338_
*480 _0339_
*481 _0340_
*482 _0341_
*483 _0342_
*484 _0343_
*485 _0344_
*486 _0345_
*487 _0346_
*488 _0347_
*489 _0348_
*490 _0349_
*491 _0350_
*492 _0351_
*493 _0352_
*494 _0353_
*495 _0354_
*496 _0355_
*497 _0356_
*498 _0357_
*499 _0358_
*500 _0359_
*501 _0360_
*502 _0361_
*503 _0362_
*504 _0363_
*505 _0364_
*506 _0365_
*507 _0366_
*508 _0367_
*509 _0368_
*510 _0369_
*511 _0370_
*512 _0371_
*513 _0372_
*514 _0373_
*515 _0374_
*516 _0375_
*517 _0376_
*518 _0377_
*519 _0378_
*520 _0379_
*521 _0380_
*522 _0381_
*523 _0382_
*524 _0383_
*525 _0384_
*526 _0385_
*527 _0386_
*528 _0387_
*529 _0388_
*530 _0389_
*531 _0390_
*532 _0391_
*533 _0392_
*534 _0393_
*535 _0394_
*536 _0395_
*537 _0396_
*538 _0397_
*539 _0398_
*540 _0399_
*541 _0400_
*542 _0401_
*543 _0402_
*544 _0403_
*545 _0404_
*546 _0405_
*547 _0406_
*548 _0407_
*549 _0408_
*550 _0409_
*551 _0410_
*552 _0411_
*553 _0412_
*554 _0413_
*555 _0414_
*556 _0415_
*557 _0416_
*558 _0417_
*559 _0418_
*560 _0419_
*561 _0420_
*562 _0421_
*563 _0422_
*564 _0423_
*565 _0424_
*566 _0425_
*567 _0426_
*568 _0427_
*569 _0428_
*570 _0429_
*571 _0430_
*572 _0431_
*573 _0432_
*574 _0433_
*575 _0434_
*576 _0435_
*577 _0436_
*578 _0437_
*579 _0438_
*580 _0439_
*581 _0440_
*582 _0441_
*583 _0442_
*584 _0443_
*585 _0444_
*586 _0445_
*587 _0446_
*588 _0447_
*589 _0448_
*590 _0449_
*591 _0450_
*592 _0451_
*593 _0452_
*594 _0453_
*595 _0454_
*596 _0455_
*597 _0456_
*598 _0457_
*599 _0458_
*600 _0459_
*601 _0460_
*602 _0461_
*603 _0462_
*604 _0463_
*605 _0464_
*606 _0465_
*607 _0466_
*608 _0467_
*609 _0468_
*610 _0469_
*611 _0470_
*612 _0471_
*613 _0472_
*614 _0473_
*615 _0474_
*616 _0475_
*617 _0476_
*618 _0477_
*619 _0478_
*620 _0479_
*621 _0480_
*622 _0481_
*623 _0482_
*624 _0483_
*625 _0484_
*626 _0485_
*627 _0486_
*628 _0487_
*629 _0488_
*630 _0489_
*631 _0490_
*632 _0491_
*633 _0492_
*634 _0493_
*635 _0494_
*636 _0495_
*637 _0496_
*638 _0497_
*639 _0498_
*640 _0499_
*641 _0500_
*642 _0501_
*643 _0502_
*644 _0503_
*645 _0504_
*646 _0505_
*647 _0506_
*648 _0507_
*649 _0508_
*650 _0509_
*651 _0510_
*652 _0511_
*653 _0512_
*654 _0513_
*655 _0514_
*656 _0515_
*657 _0516_
*658 _0517_
*659 _0518_
*660 _0519_
*661 _0520_
*662 _0521_
*663 _0522_
*664 _0523_
*665 _0524_
*666 _0525_
*667 _0526_
*668 _0527_
*669 _0528_
*670 _0529_
*671 _0530_
*672 _0531_
*673 _0532_
*674 _0533_
*675 _0534_
*676 _0535_
*677 _0536_
*678 _0537_
*679 _0538_
*680 _0539_
*681 _0540_
*682 _0541_
*683 _0542_
*684 _0543_
*685 _0544_
*686 _0545_
*687 _0546_
*688 _0547_
*689 _0548_
*690 _0549_
*691 _0550_
*692 _0551_
*693 _0552_
*694 _0553_
*695 _0554_
*696 _0555_
*697 _0556_
*698 _0557_
*699 _0558_
*700 _0559_
*701 _0560_
*702 _0561_
*703 _0562_
*704 _0563_
*705 _0564_
*706 _0565_
*707 _0566_
*708 _0567_
*709 _0568_
*710 _0569_
*711 _0570_
*712 _0571_
*713 _0572_
*714 _0573_
*715 _0574_
*716 _0575_
*717 _0576_
*718 _0577_
*719 net1
*720 net10
*721 net11
*722 net12
*723 net13
*724 net14
*725 net15
*726 net16
*727 net17
*728 net18
*729 net19
*730 net2
*731 net20
*732 net21
*733 net22
*734 net23
*735 net24
*736 net25
*737 net26
*738 net27
*739 net28
*740 net29
*741 net3
*742 net30
*743 net31
*744 net32
*745 net33
*746 net34
*747 net35
*748 net36
*749 net37
*750 net38
*751 net39
*752 net4
*753 net40
*754 net41
*755 net42
*756 net43
*757 net44
*758 net45
*759 net46
*760 net47
*761 net48
*762 net49
*763 net5
*764 net50
*765 net51
*766 net52
*767 net53
*768 net54
*769 net55
*770 net56
*771 net57
*772 net58
*773 net6
*774 net7
*775 net8
*776 net9
*777 ANTENNA__0648__B1
*778 ANTENNA__0650__A
*779 ANTENNA__0652__B1
*780 ANTENNA__0654__B1
*781 ANTENNA__0656__B
*782 ANTENNA__0663__A
*783 ANTENNA__0663__B
*784 ANTENNA__0668__A
*785 ANTENNA__0668__B
*786 ANTENNA__0668__C
*787 ANTENNA__0668__D
*788 ANTENNA__0669__A
*789 ANTENNA__0669__B
*790 ANTENNA__0669__C
*791 ANTENNA__0669__D
*792 ANTENNA__0670__A
*793 ANTENNA__0670__B
*794 ANTENNA__0670__C
*795 ANTENNA__0670__D
*796 ANTENNA__0672__A
*797 ANTENNA__0672__B
*798 ANTENNA__0673__A
*799 ANTENNA__0673__B
*800 ANTENNA__0674__A
*801 ANTENNA__0674__B
*802 ANTENNA__0675__A1
*803 ANTENNA__0675__B2
*804 ANTENNA__0678__A
*805 ANTENNA__0678__B
*806 ANTENNA__0679__A
*807 ANTENNA__0679__B
*808 ANTENNA__0681__A
*809 ANTENNA__0681__B
*810 ANTENNA__0682__A
*811 ANTENNA__0682__B
*812 ANTENNA__0683__A
*813 ANTENNA__0683__B
*814 ANTENNA__0684__A
*815 ANTENNA__0684__B
*816 ANTENNA__0692__A
*817 ANTENNA__0692__B
*818 ANTENNA__0693__A
*819 ANTENNA__0693__B
*820 ANTENNA__0698__A1
*821 ANTENNA__0698__A2
*822 ANTENNA__0700__A1
*823 ANTENNA__0700__A2
*824 ANTENNA__0701__A
*825 ANTENNA__0701__B
*826 ANTENNA__0702__A
*827 ANTENNA__0702__B
*828 ANTENNA__0713__B
*829 ANTENNA__0716__A
*830 ANTENNA__0716__B
*831 ANTENNA__0719__A
*832 ANTENNA__0719__B
*833 ANTENNA__0721__A
*834 ANTENNA__0721__B
*835 ANTENNA__0724__B
*836 ANTENNA__0726__A
*837 ANTENNA__0726__B
*838 ANTENNA__0729__A
*839 ANTENNA__0729__B
*840 ANTENNA__0730__A
*841 ANTENNA__0730__B
*842 ANTENNA__0732__B
*843 ANTENNA__0733__A
*844 ANTENNA__0733__B
*845 ANTENNA__0737__A
*846 ANTENNA__0737__B
*847 ANTENNA__0739__A
*848 ANTENNA__0739__B
*849 ANTENNA__0740__B
*850 ANTENNA__0740__C
*851 ANTENNA__0740__D
*852 ANTENNA__0745__A
*853 ANTENNA__0745__B
*854 ANTENNA__0745__C
*855 ANTENNA__0745__D
*856 ANTENNA__0746__A
*857 ANTENNA__0746__B
*858 ANTENNA__0749__A
*859 ANTENNA__0750__A
*860 ANTENNA__0750__B
*861 ANTENNA__0751__A
*862 ANTENNA__0751__B
*863 ANTENNA__0752__A1
*864 ANTENNA__0756__A1
*865 ANTENNA__0756__A2
*866 ANTENNA__0756__B1
*867 ANTENNA__0757__A1
*868 ANTENNA__0757__A2
*869 ANTENNA__0772__A_N
*870 ANTENNA__0772__B
*871 ANTENNA__0772__C
*872 ANTENNA__0772__D
*873 ANTENNA__0773__A1
*874 ANTENNA__0773__A2
*875 ANTENNA__0773__B1_N
*876 ANTENNA__0774__B1_N
*877 ANTENNA__0775__A
*878 ANTENNA__0775__B
*879 ANTENNA__0775__C
*880 ANTENNA__0776__A1
*881 ANTENNA__0776__B1
*882 ANTENNA__0777__B1
*883 ANTENNA__0778__A1
*884 ANTENNA__0778__A2
*885 ANTENNA__0778__B1
*886 ANTENNA__0779__A
*887 ANTENNA__0779__B
*888 ANTENNA__0780__A1
*889 ANTENNA__0781__A
*890 ANTENNA__0781__B
*891 ANTENNA__0782__A
*892 ANTENNA__0782__B
*893 ANTENNA__0786__A
*894 ANTENNA__0786__B
*895 ANTENNA__0787__A
*896 ANTENNA__0787__B
*897 ANTENNA__0789__A
*898 ANTENNA__0789__B
*899 ANTENNA__0810__B
*900 ANTENNA__0814__A
*901 ANTENNA__0815__B
*902 ANTENNA__0816__A
*903 ANTENNA__0816__B
*904 ANTENNA__0818__A1
*905 ANTENNA__0818__A2
*906 ANTENNA__0821__A
*907 ANTENNA__0822__A
*908 ANTENNA__0822__B
*909 ANTENNA__0823__A
*910 ANTENNA__0824__A1
*911 ANTENNA__0824__A3
*912 ANTENNA__0825__A
*913 ANTENNA__0825__B_N
*914 ANTENNA__0826__B1
*915 ANTENNA__0827__A
*916 ANTENNA__0827__B
*917 ANTENNA__0828__A
*918 ANTENNA__0828__B
*919 ANTENNA__0829__A1
*920 ANTENNA__0829__A2
*921 ANTENNA__0829__B1
*922 ANTENNA__0831__A_N
*923 ANTENNA__0831__C
*924 ANTENNA__0831__D
*925 ANTENNA__0833__A
*926 ANTENNA__0833__B
*927 ANTENNA__0834__A1
*928 ANTENNA__0834__A2
*929 ANTENNA__0834__B1
*930 ANTENNA__0836__A
*931 ANTENNA__0836__B
*932 ANTENNA__0836__C
*933 ANTENNA__0836__D
*934 ANTENNA__0837__A
*935 ANTENNA__0837__B_N
*936 ANTENNA__0838__A1
*937 ANTENNA__0838__A2
*938 ANTENNA__0838__B1_N
*939 ANTENNA__0839__B
*940 ANTENNA__0839__C
*941 ANTENNA__0840__A1
*942 ANTENNA__0840__C1
*943 ANTENNA__0850__A1
*944 ANTENNA__0850__A2
*945 ANTENNA__0850__B1
*946 ANTENNA__0851__A
*947 ANTENNA__0851__B
*948 ANTENNA__0852__A1
*949 ANTENNA__0853__A_N
*950 ANTENNA__0853__B
*951 ANTENNA__0853__C
*952 ANTENNA__0853__D
*953 ANTENNA__0854__A1
*954 ANTENNA__0854__A2
*955 ANTENNA__0854__B1_N
*956 ANTENNA__0855__B1
*957 ANTENNA__0856__A
*958 ANTENNA__0856__B
*959 ANTENNA__0857__A1
*960 ANTENNA__0857__A2
*961 ANTENNA__0859__A
*962 ANTENNA__0859__B
*963 ANTENNA__0860__A
*964 ANTENNA__0860__B
*965 ANTENNA__0863__B1
*966 ANTENNA__0864__A1
*967 ANTENNA__0868__A
*968 ANTENNA__0868__B
*969 ANTENNA__0869__A
*970 ANTENNA__0871__A
*971 ANTENNA__0871__B
*972 ANTENNA__0872__B
*973 ANTENNA__0877__A
*974 ANTENNA__0877__B
*975 ANTENNA__0878__A
*976 ANTENNA__0878__B
*977 ANTENNA__0897__A
*978 ANTENNA__0897__B
*979 ANTENNA__0898__A
*980 ANTENNA__0898__B
*981 ANTENNA__0899__C1
*982 ANTENNA__0900__A1
*983 ANTENNA__0910__A
*984 ANTENNA__0910__B
*985 ANTENNA__0914__A
*986 ANTENNA__0914__B
*987 ANTENNA__0915__A
*988 ANTENNA__0915__B
*989 ANTENNA__0917__A
*990 ANTENNA__0917__B
*991 ANTENNA__0917__C
*992 ANTENNA__0917__D
*993 ANTENNA__0918__A
*994 ANTENNA__0918__B
*995 ANTENNA__0919__A
*996 ANTENNA__0919__B
*997 ANTENNA__0921__A
*998 ANTENNA__0921__B
*999 ANTENNA__0922__A
*1000 ANTENNA__0922__B
*1001 ANTENNA__0923__A
*1002 ANTENNA__0923__B
*1003 ANTENNA__0938__A
*1004 ANTENNA__0938__B
*1005 ANTENNA__0939__A
*1006 ANTENNA__0939__B
*1007 ANTENNA__0952__A
*1008 ANTENNA__0952__B
*1009 ANTENNA__0953__A
*1010 ANTENNA__0953__B
*1011 ANTENNA__0970__A
*1012 ANTENNA__0970__B
*1013 ANTENNA__0971__A
*1014 ANTENNA__0974__A
*1015 ANTENNA__0978__A
*1016 ANTENNA__0978__B_N
*1017 ANTENNA__0979__A
*1018 ANTENNA__0979__B
*1019 ANTENNA__0980__A
*1020 ANTENNA__0994__A1
*1021 ANTENNA__0995__A
*1022 ANTENNA__0995__B
*1023 ANTENNA__0996__A1
*1024 ANTENNA__0996__B2
*1025 ANTENNA__0997__A
*1026 ANTENNA__0998__A1_N
*1027 ANTENNA__0998__A2_N
*1028 ANTENNA__1000__A1
*1029 ANTENNA__1008__A1
*1030 ANTENNA__1008__A2
*1031 ANTENNA__1008__A3
*1032 ANTENNA__1008__A4
*1033 ANTENNA__1009__A
*1034 ANTENNA__1013__A
*1035 ANTENNA__1013__B
*1036 ANTENNA__1031__A1
*1037 ANTENNA__1031__B1
*1038 ANTENNA__1032__A1
*1039 ANTENNA__1033__A
*1040 ANTENNA__1035__A1
*1041 ANTENNA__1035__B1
*1042 ANTENNA__1036__B1
*1043 ANTENNA__1107__A
*1044 ANTENNA__1108__A1
*1045 ANTENNA__1108__S
*1046 ANTENNA__1109__A
*1047 ANTENNA__1111__B2
*1048 ANTENNA__1113__A
*1049 ANTENNA__1113__B
*1050 ANTENNA__1114__A
*1051 ANTENNA__1114__B
*1052 ANTENNA__1117__A
*1053 ANTENNA__1117__C
*1054 ANTENNA__1119__A1
*1055 ANTENNA__1119__A2
*1056 ANTENNA__1119__B2
*1057 ANTENNA__1120__A
*1058 ANTENNA__1121__A3
*1059 ANTENNA__1122__A1
*1060 ANTENNA__1134__A
*1061 ANTENNA__1135__A
*1062 ANTENNA__1136__A
*1063 ANTENNA__1137__A
*1064 ANTENNA__1138__A
*1065 ANTENNA__1139__A
*1066 ANTENNA__1140__A
*1067 ANTENNA__1141__A
*1068 ANTENNA__1142__A
*1069 ANTENNA__1143__A
*1070 ANTENNA__1144__A
*1071 ANTENNA__1145__A
*1072 ANTENNA__1146__A
*1073 ANTENNA__1147__A
*1074 ANTENNA__1148__A
*1075 ANTENNA__1149__A
*1076 ANTENNA__1150__A
*1077 ANTENNA__1151__A
*1078 ANTENNA__1152__A
*1079 ANTENNA__1153__A
*1080 ANTENNA__1154__A
*1081 ANTENNA__1155__A
*1082 ANTENNA__1156__A
*1083 ANTENNA__1157__A
*1084 ANTENNA__1158__A
*1085 ANTENNA__1159__A
*1086 ANTENNA__1160__A
*1087 ANTENNA__1161__A
*1088 ANTENNA__1162__A
*1089 ANTENNA__1163__A
*1090 ANTENNA__1164__A
*1091 ANTENNA__1165__A
*1092 ANTENNA__1166__A
*1093 ANTENNA__1167__A
*1094 ANTENNA__1168__A
*1095 ANTENNA__1169__A
*1096 ANTENNA__1170__A
*1097 ANTENNA__1171__A
*1098 ANTENNA__1172__A
*1099 ANTENNA__1173__A
*1100 ANTENNA__1174__A
*1101 ANTENNA__1175__A
*1102 ANTENNA__1176__A
*1103 ANTENNA__1177__A
*1104 ANTENNA__1178__A
*1105 ANTENNA__1179__A
*1106 ANTENNA__1180__A
*1107 ANTENNA__1181__A
*1108 ANTENNA__1182__A
*1109 ANTENNA__1183__A
*1110 ANTENNA__1184__A
*1111 ANTENNA__1185__A
*1112 ANTENNA__1186__A
*1113 ANTENNA__1187__A
*1114 ANTENNA__1188__A
*1115 ANTENNA__1189__A
*1116 ANTENNA__1190__A
*1117 ANTENNA__1191__A
*1118 ANTENNA__1192__A
*1119 ANTENNA__1193__A
*1120 ANTENNA__1194__A
*1121 ANTENNA__1195__A
*1122 ANTENNA__1196__A
*1123 ANTENNA__1197__A
*1124 ANTENNA__1198__A
*1125 ANTENNA__1199__A
*1126 ANTENNA__1200__A
*1127 ANTENNA__1201__A
*1128 ANTENNA__1202__A
*1129 ANTENNA__1203__A
*1130 ANTENNA__1204__A
*1131 ANTENNA__1205__A
*1132 ANTENNA__1206__CLK
*1133 ANTENNA__1207__CLK
*1134 ANTENNA__1208__CLK
*1135 ANTENNA__1209__CLK
*1136 ANTENNA__1210__CLK
*1137 ANTENNA__1211__CLK
*1138 ANTENNA__1212__CLK
*1139 ANTENNA__1213__CLK
*1140 ANTENNA__1214__CLK
*1141 ANTENNA__1215__CLK
*1142 ANTENNA__1216__CLK
*1143 ANTENNA__1217__CLK
*1144 ANTENNA__1218__CLK
*1145 ANTENNA__1219__CLK
*1146 ANTENNA__1220__CLK
*1147 ANTENNA__1221__CLK
*1148 ANTENNA__1222__CLK
*1149 ANTENNA__1223__CLK
*1150 ANTENNA__1224__CLK
*1151 ANTENNA__1225__CLK
*1152 ANTENNA__1226__CLK
*1153 ANTENNA__1227__CLK
*1154 ANTENNA__1228__CLK
*1155 ANTENNA__1229__CLK
*1156 ANTENNA__1230__CLK
*1157 ANTENNA__1231__CLK
*1158 ANTENNA__1232__CLK
*1159 ANTENNA__1233__CLK
*1160 ANTENNA__1234__CLK
*1161 ANTENNA__1235__CLK
*1162 ANTENNA__1236__CLK
*1163 ANTENNA__1237__CLK
*1164 ANTENNA__1238__CLK
*1165 ANTENNA__1239__CLK
*1166 ANTENNA__1240__CLK
*1167 ANTENNA__1241__CLK
*1168 ANTENNA__1242__CLK
*1169 ANTENNA__1243__CLK
*1170 ANTENNA__1244__CLK
*1171 ANTENNA__1245__CLK
*1172 ANTENNA__1246__CLK
*1173 ANTENNA__1247__CLK
*1174 ANTENNA__1248__CLK
*1175 ANTENNA__1249__CLK
*1176 ANTENNA__1250__CLK
*1177 ANTENNA__1251__CLK
*1178 ANTENNA__1252__CLK
*1179 ANTENNA__1253__CLK
*1180 ANTENNA__1254__CLK
*1181 ANTENNA__1255__CLK
*1182 ANTENNA__1256__CLK
*1183 ANTENNA__1257__CLK
*1184 ANTENNA__1258__CLK
*1185 ANTENNA__1259__CLK
*1186 ANTENNA__1260__CLK
*1187 ANTENNA__1261__CLK
*1188 ANTENNA__1262__CLK
*1189 ANTENNA__1263__CLK
*1190 ANTENNA__1264__CLK
*1191 ANTENNA__1265__CLK
*1192 ANTENNA__1266__CLK
*1193 ANTENNA__1267__CLK
*1194 ANTENNA__1268__CLK
*1195 ANTENNA__1269__CLK
*1196 ANTENNA__1270__CLK
*1197 ANTENNA__1271__CLK
*1198 ANTENNA__1272__CLK
*1199 ANTENNA__1273__CLK
*1200 ANTENNA__1274__CLK
*1201 ANTENNA_max_cap49_A
*1202 FILLER_0_0_103
*1203 FILLER_0_0_111
*1204 FILLER_0_0_113
*1205 FILLER_0_0_125
*1206 FILLER_0_0_137
*1207 FILLER_0_0_141
*1208 FILLER_0_0_153
*1209 FILLER_0_0_165
*1210 FILLER_0_0_169
*1211 FILLER_0_0_18
*1212 FILLER_0_0_181
*1213 FILLER_0_0_193
*1214 FILLER_0_0_197
*1215 FILLER_0_0_209
*1216 FILLER_0_0_221
*1217 FILLER_0_0_225
*1218 FILLER_0_0_237
*1219 FILLER_0_0_249
*1220 FILLER_0_0_253
*1221 FILLER_0_0_26
*1222 FILLER_0_0_265
*1223 FILLER_0_0_277
*1224 FILLER_0_0_281
*1225 FILLER_0_0_288
*1226 FILLER_0_0_29
*1227 FILLER_0_0_300
*1228 FILLER_0_0_309
*1229 FILLER_0_0_321
*1230 FILLER_0_0_333
*1231 FILLER_0_0_337
*1232 FILLER_0_0_349
*1233 FILLER_0_0_361
*1234 FILLER_0_0_365
*1235 FILLER_0_0_41
*1236 FILLER_0_0_53
*1237 FILLER_0_0_57
*1238 FILLER_0_0_6
*1239 FILLER_0_0_69
*1240 FILLER_0_0_81
*1241 FILLER_0_0_85
*1242 FILLER_0_10_109
*1243 FILLER_0_10_121
*1244 FILLER_0_10_133
*1245 FILLER_0_10_139
*1246 FILLER_0_10_141
*1247 FILLER_0_10_15
*1248 FILLER_0_10_153
*1249 FILLER_0_10_165
*1250 FILLER_0_10_177
*1251 FILLER_0_10_189
*1252 FILLER_0_10_195
*1253 FILLER_0_10_197
*1254 FILLER_0_10_209
*1255 FILLER_0_10_221
*1256 FILLER_0_10_233
*1257 FILLER_0_10_245
*1258 FILLER_0_10_251
*1259 FILLER_0_10_253
*1260 FILLER_0_10_265
*1261 FILLER_0_10_27
*1262 FILLER_0_10_277
*1263 FILLER_0_10_289
*1264 FILLER_0_10_29
*1265 FILLER_0_10_3
*1266 FILLER_0_10_301
*1267 FILLER_0_10_307
*1268 FILLER_0_10_309
*1269 FILLER_0_10_321
*1270 FILLER_0_10_333
*1271 FILLER_0_10_345
*1272 FILLER_0_10_365
*1273 FILLER_0_10_41
*1274 FILLER_0_10_53
*1275 FILLER_0_10_65
*1276 FILLER_0_10_77
*1277 FILLER_0_10_83
*1278 FILLER_0_10_85
*1279 FILLER_0_10_97
*1280 FILLER_0_11_105
*1281 FILLER_0_11_111
*1282 FILLER_0_11_113
*1283 FILLER_0_11_125
*1284 FILLER_0_11_137
*1285 FILLER_0_11_149
*1286 FILLER_0_11_15
*1287 FILLER_0_11_161
*1288 FILLER_0_11_167
*1289 FILLER_0_11_169
*1290 FILLER_0_11_181
*1291 FILLER_0_11_193
*1292 FILLER_0_11_205
*1293 FILLER_0_11_217
*1294 FILLER_0_11_223
*1295 FILLER_0_11_225
*1296 FILLER_0_11_237
*1297 FILLER_0_11_249
*1298 FILLER_0_11_261
*1299 FILLER_0_11_27
*1300 FILLER_0_11_273
*1301 FILLER_0_11_279
*1302 FILLER_0_11_281
*1303 FILLER_0_11_293
*1304 FILLER_0_11_3
*1305 FILLER_0_11_305
*1306 FILLER_0_11_317
*1307 FILLER_0_11_329
*1308 FILLER_0_11_335
*1309 FILLER_0_11_337
*1310 FILLER_0_11_349
*1311 FILLER_0_11_361
*1312 FILLER_0_11_367
*1313 FILLER_0_11_39
*1314 FILLER_0_11_51
*1315 FILLER_0_11_55
*1316 FILLER_0_11_57
*1317 FILLER_0_11_69
*1318 FILLER_0_11_81
*1319 FILLER_0_11_93
*1320 FILLER_0_12_109
*1321 FILLER_0_12_121
*1322 FILLER_0_12_133
*1323 FILLER_0_12_139
*1324 FILLER_0_12_141
*1325 FILLER_0_12_153
*1326 FILLER_0_12_165
*1327 FILLER_0_12_177
*1328 FILLER_0_12_18
*1329 FILLER_0_12_181
*1330 FILLER_0_12_193
*1331 FILLER_0_12_202
*1332 FILLER_0_12_214
*1333 FILLER_0_12_226
*1334 FILLER_0_12_238
*1335 FILLER_0_12_250
*1336 FILLER_0_12_253
*1337 FILLER_0_12_26
*1338 FILLER_0_12_265
*1339 FILLER_0_12_277
*1340 FILLER_0_12_289
*1341 FILLER_0_12_29
*1342 FILLER_0_12_301
*1343 FILLER_0_12_307
*1344 FILLER_0_12_309
*1345 FILLER_0_12_321
*1346 FILLER_0_12_333
*1347 FILLER_0_12_357
*1348 FILLER_0_12_363
*1349 FILLER_0_12_365
*1350 FILLER_0_12_41
*1351 FILLER_0_12_53
*1352 FILLER_0_12_6
*1353 FILLER_0_12_65
*1354 FILLER_0_12_77
*1355 FILLER_0_12_83
*1356 FILLER_0_12_85
*1357 FILLER_0_12_97
*1358 FILLER_0_13_105
*1359 FILLER_0_13_11
*1360 FILLER_0_13_111
*1361 FILLER_0_13_113
*1362 FILLER_0_13_125
*1363 FILLER_0_13_137
*1364 FILLER_0_13_149
*1365 FILLER_0_13_16
*1366 FILLER_0_13_161
*1367 FILLER_0_13_167
*1368 FILLER_0_13_169
*1369 FILLER_0_13_20
*1370 FILLER_0_13_214
*1371 FILLER_0_13_222
*1372 FILLER_0_13_225
*1373 FILLER_0_13_237
*1374 FILLER_0_13_249
*1375 FILLER_0_13_261
*1376 FILLER_0_13_273
*1377 FILLER_0_13_279
*1378 FILLER_0_13_293
*1379 FILLER_0_13_3
*1380 FILLER_0_13_305
*1381 FILLER_0_13_317
*1382 FILLER_0_13_32
*1383 FILLER_0_13_329
*1384 FILLER_0_13_333
*1385 FILLER_0_13_360
*1386 FILLER_0_13_364
*1387 FILLER_0_13_44
*1388 FILLER_0_13_57
*1389 FILLER_0_13_69
*1390 FILLER_0_13_81
*1391 FILLER_0_13_93
*1392 FILLER_0_14_109
*1393 FILLER_0_14_121
*1394 FILLER_0_14_133
*1395 FILLER_0_14_139
*1396 FILLER_0_14_141
*1397 FILLER_0_14_153
*1398 FILLER_0_14_157
*1399 FILLER_0_14_178
*1400 FILLER_0_14_182
*1401 FILLER_0_14_193
*1402 FILLER_0_14_197
*1403 FILLER_0_14_205
*1404 FILLER_0_14_214
*1405 FILLER_0_14_231
*1406 FILLER_0_14_24
*1407 FILLER_0_14_243
*1408 FILLER_0_14_251
*1409 FILLER_0_14_253
*1410 FILLER_0_14_265
*1411 FILLER_0_14_29
*1412 FILLER_0_14_291
*1413 FILLER_0_14_295
*1414 FILLER_0_14_307
*1415 FILLER_0_14_309
*1416 FILLER_0_14_321
*1417 FILLER_0_14_327
*1418 FILLER_0_14_331
*1419 FILLER_0_14_335
*1420 FILLER_0_14_339
*1421 FILLER_0_14_346
*1422 FILLER_0_14_365
*1423 FILLER_0_14_41
*1424 FILLER_0_14_53
*1425 FILLER_0_14_65
*1426 FILLER_0_14_77
*1427 FILLER_0_14_83
*1428 FILLER_0_14_85
*1429 FILLER_0_14_97
*1430 FILLER_0_15_100
*1431 FILLER_0_15_113
*1432 FILLER_0_15_125
*1433 FILLER_0_15_137
*1434 FILLER_0_15_149
*1435 FILLER_0_15_161
*1436 FILLER_0_15_167
*1437 FILLER_0_15_169
*1438 FILLER_0_15_18
*1439 FILLER_0_15_184
*1440 FILLER_0_15_196
*1441 FILLER_0_15_208
*1442 FILLER_0_15_214
*1443 FILLER_0_15_241
*1444 FILLER_0_15_255
*1445 FILLER_0_15_267
*1446 FILLER_0_15_279
*1447 FILLER_0_15_281
*1448 FILLER_0_15_293
*1449 FILLER_0_15_305
*1450 FILLER_0_15_317
*1451 FILLER_0_15_331
*1452 FILLER_0_15_335
*1453 FILLER_0_15_337
*1454 FILLER_0_15_349
*1455 FILLER_0_15_361
*1456 FILLER_0_15_365
*1457 FILLER_0_15_39
*1458 FILLER_0_15_43
*1459 FILLER_0_15_47
*1460 FILLER_0_15_51
*1461 FILLER_0_15_55
*1462 FILLER_0_15_57
*1463 FILLER_0_15_6
*1464 FILLER_0_15_69
*1465 FILLER_0_15_79
*1466 FILLER_0_15_84
*1467 FILLER_0_15_88
*1468 FILLER_0_16_105
*1469 FILLER_0_16_109
*1470 FILLER_0_16_121
*1471 FILLER_0_16_133
*1472 FILLER_0_16_139
*1473 FILLER_0_16_141
*1474 FILLER_0_16_153
*1475 FILLER_0_16_157
*1476 FILLER_0_16_161
*1477 FILLER_0_16_165
*1478 FILLER_0_16_171
*1479 FILLER_0_16_220
*1480 FILLER_0_16_226
*1481 FILLER_0_16_24
*1482 FILLER_0_16_253
*1483 FILLER_0_16_263
*1484 FILLER_0_16_273
*1485 FILLER_0_16_29
*1486 FILLER_0_16_299
*1487 FILLER_0_16_303
*1488 FILLER_0_16_307
*1489 FILLER_0_16_309
*1490 FILLER_0_16_317
*1491 FILLER_0_16_321
*1492 FILLER_0_16_328
*1493 FILLER_0_16_336
*1494 FILLER_0_16_34
*1495 FILLER_0_16_38
*1496 FILLER_0_16_50
*1497 FILLER_0_16_58
*1498 FILLER_0_16_82
*1499 FILLER_0_16_97
*1500 FILLER_0_17_113
*1501 FILLER_0_17_119
*1502 FILLER_0_17_122
*1503 FILLER_0_17_131
*1504 FILLER_0_17_136
*1505 FILLER_0_17_14
*1506 FILLER_0_17_140
*1507 FILLER_0_17_150
*1508 FILLER_0_17_155
*1509 FILLER_0_17_167
*1510 FILLER_0_17_169
*1511 FILLER_0_17_178
*1512 FILLER_0_17_18
*1513 FILLER_0_17_208
*1514 FILLER_0_17_225
*1515 FILLER_0_17_237
*1516 FILLER_0_17_259
*1517 FILLER_0_17_276
*1518 FILLER_0_17_3
*1519 FILLER_0_17_335
*1520 FILLER_0_17_337
*1521 FILLER_0_17_364
*1522 FILLER_0_17_42
*1523 FILLER_0_17_46
*1524 FILLER_0_17_50
*1525 FILLER_0_18_109
*1526 FILLER_0_18_117
*1527 FILLER_0_18_15
*1528 FILLER_0_18_179
*1529 FILLER_0_18_192
*1530 FILLER_0_18_197
*1531 FILLER_0_18_201
*1532 FILLER_0_18_214
*1533 FILLER_0_18_223
*1534 FILLER_0_18_231
*1535 FILLER_0_18_243
*1536 FILLER_0_18_253
*1537 FILLER_0_18_266
*1538 FILLER_0_18_27
*1539 FILLER_0_18_278
*1540 FILLER_0_18_29
*1541 FILLER_0_18_293
*1542 FILLER_0_18_297
*1543 FILLER_0_18_3
*1544 FILLER_0_18_301
*1545 FILLER_0_18_307
*1546 FILLER_0_18_309
*1547 FILLER_0_18_313
*1548 FILLER_0_18_317
*1549 FILLER_0_18_323
*1550 FILLER_0_18_330
*1551 FILLER_0_18_334
*1552 FILLER_0_18_346
*1553 FILLER_0_18_365
*1554 FILLER_0_18_37
*1555 FILLER_0_18_40
*1556 FILLER_0_18_48
*1557 FILLER_0_18_57
*1558 FILLER_0_18_85
*1559 FILLER_0_18_89
*1560 FILLER_0_18_97
*1561 FILLER_0_19_101
*1562 FILLER_0_19_109
*1563 FILLER_0_19_113
*1564 FILLER_0_19_121
*1565 FILLER_0_19_129
*1566 FILLER_0_19_133
*1567 FILLER_0_19_136
*1568 FILLER_0_19_15
*1569 FILLER_0_19_155
*1570 FILLER_0_19_159
*1571 FILLER_0_19_166
*1572 FILLER_0_19_174
*1573 FILLER_0_19_179
*1574 FILLER_0_19_183
*1575 FILLER_0_19_189
*1576 FILLER_0_19_193
*1577 FILLER_0_19_197
*1578 FILLER_0_19_203
*1579 FILLER_0_19_207
*1580 FILLER_0_19_212
*1581 FILLER_0_19_216
*1582 FILLER_0_19_220
*1583 FILLER_0_19_225
*1584 FILLER_0_19_237
*1585 FILLER_0_19_273
*1586 FILLER_0_19_291
*1587 FILLER_0_19_319
*1588 FILLER_0_19_331
*1589 FILLER_0_19_335
*1590 FILLER_0_19_337
*1591 FILLER_0_19_367
*1592 FILLER_0_19_41
*1593 FILLER_0_19_45
*1594 FILLER_0_19_52
*1595 FILLER_0_19_57
*1596 FILLER_0_19_6
*1597 FILLER_0_19_69
*1598 FILLER_0_19_78
*1599 FILLER_0_19_82
*1600 FILLER_0_19_86
*1601 FILLER_0_19_90
*1602 FILLER_0_19_98
*1603 FILLER_0_1_105
*1604 FILLER_0_1_111
*1605 FILLER_0_1_113
*1606 FILLER_0_1_125
*1607 FILLER_0_1_137
*1608 FILLER_0_1_149
*1609 FILLER_0_1_15
*1610 FILLER_0_1_161
*1611 FILLER_0_1_167
*1612 FILLER_0_1_169
*1613 FILLER_0_1_181
*1614 FILLER_0_1_193
*1615 FILLER_0_1_205
*1616 FILLER_0_1_217
*1617 FILLER_0_1_223
*1618 FILLER_0_1_225
*1619 FILLER_0_1_237
*1620 FILLER_0_1_249
*1621 FILLER_0_1_261
*1622 FILLER_0_1_27
*1623 FILLER_0_1_273
*1624 FILLER_0_1_279
*1625 FILLER_0_1_281
*1626 FILLER_0_1_293
*1627 FILLER_0_1_3
*1628 FILLER_0_1_305
*1629 FILLER_0_1_317
*1630 FILLER_0_1_329
*1631 FILLER_0_1_335
*1632 FILLER_0_1_337
*1633 FILLER_0_1_349
*1634 FILLER_0_1_361
*1635 FILLER_0_1_367
*1636 FILLER_0_1_39
*1637 FILLER_0_1_51
*1638 FILLER_0_1_55
*1639 FILLER_0_1_57
*1640 FILLER_0_1_69
*1641 FILLER_0_1_81
*1642 FILLER_0_1_93
*1643 FILLER_0_20_124
*1644 FILLER_0_20_128
*1645 FILLER_0_20_132
*1646 FILLER_0_20_136
*1647 FILLER_0_20_141
*1648 FILLER_0_20_147
*1649 FILLER_0_20_153
*1650 FILLER_0_20_157
*1651 FILLER_0_20_161
*1652 FILLER_0_20_174
*1653 FILLER_0_20_186
*1654 FILLER_0_20_190
*1655 FILLER_0_20_206
*1656 FILLER_0_20_223
*1657 FILLER_0_20_227
*1658 FILLER_0_20_23
*1659 FILLER_0_20_233
*1660 FILLER_0_20_243
*1661 FILLER_0_20_251
*1662 FILLER_0_20_253
*1663 FILLER_0_20_27
*1664 FILLER_0_20_277
*1665 FILLER_0_20_288
*1666 FILLER_0_20_29
*1667 FILLER_0_20_297
*1668 FILLER_0_20_305
*1669 FILLER_0_20_309
*1670 FILLER_0_20_322
*1671 FILLER_0_20_344
*1672 FILLER_0_20_348
*1673 FILLER_0_20_354
*1674 FILLER_0_20_365
*1675 FILLER_0_20_44
*1676 FILLER_0_20_56
*1677 FILLER_0_20_88
*1678 FILLER_0_21_100
*1679 FILLER_0_21_113
*1680 FILLER_0_21_121
*1681 FILLER_0_21_131
*1682 FILLER_0_21_135
*1683 FILLER_0_21_138
*1684 FILLER_0_21_143
*1685 FILLER_0_21_15
*1686 FILLER_0_21_150
*1687 FILLER_0_21_155