*SPEF "ieee 1481-1999"
*DESIGN "vmsu_8bit_top"
*DATE "11:11:11 Fri 11 11, 1111"
*VENDOR "OpenRCX"
*PROGRAM "Parallel Extraction"
*VERSION "1.0"
*DESIGN_FLOW "NAME_SCOPE LOCAL" "PIN_CAP NONE"
*DIVIDER /
*DELIMITER :
*BUS_DELIMITER []
*T_UNIT 1 NS
*C_UNIT 1 PF
*R_UNIT 1 OHM
*L_UNIT 1 HENRY

*NAME_MAP
*1 a[0]
*2 a[1]
*3 a[2]
*4 a[3]
*5 a[4]
*6 a[5]
*7 a[6]
*8 a[7]
*9 b[0]
*10 b[1]
*11 b[2]
*12 b[3]
*13 b[4]
*14 b[5]
*15 b[6]
*16 b[7]
*17 clk
*18 control
*19 p[0]
*20 p[10]
*21 p[11]
*22 p[12]
*23 p[13]
*24 p[14]
*25 p[15]
*26 p[1]
*27 p[2]
*28 p[3]
*29 p[4]
*30 p[5]
*31 p[6]
*32 p[7]
*33 p[8]
*34 p[9]
*35 rst
*38 FA0\.q
*39 FA1\.q
*40 FA2\.q
*41 FA3\.q
*42 FA4\.q
*43 FA5\.q
*44 FA6\.q
*45 FA7\.q
*46 FB0\.q
*47 FB1\.q
*48 FB2\.q
*49 FB3\.q
*50 FB4\.q
*51 FB5\.q
*52 FB6\.q
*53 FB7\.q
*54 FC\.q
*55 FP0\.d
*56 FP1\.d
*57 FP10\.d
*58 FP11\.d
*59 FP12\.d
*60 FP13\.d
*61 FP14\.d
*62 FP15\.d
*63 FP2\.d
*64 FP3\.d
*65 FP4\.d
*66 FP5\.d
*67 FP6\.d
*68 FP7\.d
*69 FP8\.d
*70 FP9\.d
*71 _000_
*72 _001_
*73 _002_
*74 _003_
*75 _004_
*76 _005_
*77 _006_
*78 _007_
*79 _008_
*80 _009_
*81 _010_
*82 _011_
*83 _012_
*84 _013_
*85 _014_
*86 _015_
*87 _016_
*88 _017_
*89 _018_
*90 _019_
*91 _020_
*92 _021_
*93 _022_
*94 _023_
*95 _024_
*96 _025_
*97 _026_
*98 _027_
*99 _028_
*100 _029_
*101 _030_
*102 _031_
*103 _032_
*104 _033_
*105 _034_
*106 _035_
*107 _036_
*108 _037_
*109 _038_
*110 _039_
*111 _040_
*112 _041_
*113 _042_
*114 _043_
*115 _044_
*116 _045_
*117 _046_
*118 _047_
*119 _048_
*120 _049_
*121 _050_
*122 _051_
*123 _052_
*124 _053_
*125 _054_
*126 _055_
*127 _056_
*128 _057_
*129 _058_
*130 _059_
*131 _060_
*132 _061_
*133 _062_
*134 _063_
*135 _064_
*136 _065_
*137 _066_
*138 _067_
*139 _068_
*140 _069_
*141 _070_
*142 _071_
*143 _072_
*144 _073_
*145 _074_
*146 _075_
*147 _076_
*148 _077_
*149 _078_
*150 _079_
*151 _080_
*152 _081_
*153 _082_
*154 _083_
*155 _084_
*156 _085_
*157 _086_
*158 _087_
*159 _088_
*160 _089_
*161 _090_
*162 _091_
*163 _092_
*164 _093_
*165 _094_
*166 _095_
*167 _096_
*168 _097_
*169 _098_
*170 _099_
*171 _100_
*172 _101_
*173 _102_
*174 _103_
*175 _104_
*176 _105_
*177 _106_
*178 _107_
*179 _108_
*180 _109_
*181 _110_
*182 _111_
*183 _112_
*184 _113_
*185 _114_
*186 _115_
*187 _116_
*188 _117_
*189 _118_
*190 _119_
*191 _120_
*192 _121_
*193 _122_
*194 _123_
*195 _124_
*196 _125_
*197 _126_
*198 _127_
*199 _128_
*200 _129_
*201 _130_
*202 _131_
*203 _132_
*204 _133_
*205 _134_
*206 _135_
*207 _136_
*208 _137_
*209 _138_
*210 _139_
*211 _140_
*212 _141_
*213 _142_
*214 _143_
*215 _144_
*216 _145_
*217 _146_
*218 _147_
*219 _148_
*220 _149_
*221 _150_
*222 _151_
*223 _152_
*224 _153_
*225 _154_
*226 _155_
*227 _156_
*228 _157_
*229 _158_
*230 _159_
*231 _160_
*232 _161_
*233 _162_
*234 _163_
*235 _164_
*236 _165_
*237 _166_
*238 _167_
*239 _168_
*240 _169_
*241 _170_
*242 _171_
*243 _172_
*244 _173_
*245 _174_
*246 _175_
*247 _176_
*248 _177_
*249 _178_
*250 _179_
*251 _180_
*252 _181_
*253 _182_
*254 _183_
*255 _184_
*256 _185_
*257 _186_
*258 _187_
*259 _188_
*260 _189_
*261 _190_
*262 _191_
*263 _192_
*264 _193_
*265 _194_
*266 _195_
*267 _196_
*268 _197_
*269 _198_
*270 _199_
*271 _200_
*272 _201_
*273 _202_
*274 _203_
*275 _204_
*276 _205_
*277 _206_
*278 _207_
*279 _208_
*280 _209_
*281 _210_
*282 _211_
*283 _212_
*284 _213_
*285 _214_
*286 _215_
*287 _216_
*288 _217_
*289 _218_
*290 _219_
*291 _220_
*292 _221_
*293 _222_
*294 _223_
*295 _224_
*296 _225_
*297 _226_
*298 _227_
*299 _228_
*300 _229_
*301 _230_
*302 _231_
*303 _232_
*304 _233_
*305 _234_
*306 _235_
*307 _236_
*308 _237_
*309 _238_
*310 _239_
*311 _240_
*312 _241_
*313 _242_
*314 _243_
*315 _244_
*316 _245_
*317 _246_
*318 _247_
*319 _248_
*320 _249_
*321 _250_
*322 _251_
*323 _252_
*324 _253_
*325 _254_
*326 _255_
*327 _256_
*328 _257_
*329 _258_
*330 _259_
*331 _260_
*332 _261_
*333 _262_
*334 _263_
*335 _264_
*336 _265_
*337 _266_
*338 _267_
*339 _268_
*340 _269_
*341 _270_
*342 _271_
*343 _272_
*344 _273_
*345 _274_
*346 _275_
*347 _276_
*348 _277_
*349 _278_
*350 _279_
*351 _280_
*352 _281_
*353 _282_
*354 _283_
*355 _284_
*356 _285_
*357 _286_
*358 _287_
*359 _288_
*360 _289_
*361 _290_
*362 _291_
*363 _292_
*364 _293_
*365 _294_
*366 _295_
*367 _296_
*368 _297_
*369 _298_
*370 _299_
*371 _300_
*372 _301_
*373 _302_
*374 _303_
*375 _304_
*376 _305_
*377 _306_
*378 _307_
*379 _308_
*380 _309_
*381 _310_
*382 _311_
*383 _312_
*384 _313_
*385 _314_
*386 _315_
*387 _316_
*388 _317_
*389 _318_
*390 _319_
*391 _320_
*392 _321_
*393 _322_
*394 _323_
*395 _324_
*396 _325_
*397 _326_
*398 _327_
*399 _328_
*400 _329_
*401 _330_
*402 _331_
*403 _332_
*404 _333_
*405 _334_
*406 _335_
*407 _336_
*408 _337_
*409 _338_
*410 _339_
*411 _340_
*412 _341_
*413 _342_
*414 _343_
*415 _344_
*416 _345_
*417 _346_
*418 _347_
*419 _348_
*420 _349_
*421 _350_
*422 _351_
*423 _352_
*424 _353_
*425 _354_
*426 _355_
*427 _356_
*428 _357_
*429 _358_
*430 _359_
*431 _360_
*432 _361_
*433 _362_
*434 _363_
*435 _364_
*436 _365_
*437 _366_
*438 _367_
*439 _368_
*440 _369_
*441 _370_
*442 _371_
*443 _372_
*444 _373_
*445 _374_
*446 _375_
*447 _376_
*448 _377_
*449 _378_
*450 _379_
*451 net1
*452 net10
*453 net11
*454 net12
*455 net13
*456 net14
*457 net15
*458 net16
*459 net17
*460 net18
*461 net19
*462 net2
*463 net20
*464 net21
*465 net22
*466 net23
*467 net24
*468 net25
*469 net26
*470 net27
*471 net28
*472 net29
*473 net3
*474 net30
*475 net31
*476 net32
*477 net33
*478 net34
*479 net35
*480 net36
*481 net37
*482 net38
*483 net39
*484 net4
*485 net5
*486 net6
*487 net7
*488 net8
*489 net9
*490 ANTENNA__515__B
*491 ANTENNA__551__C
*492 ANTENNA__551__D_N
*493 ANTENNA__552__A2_N
*494 ANTENNA__552__B1
*495 ANTENNA__586__B
*496 ANTENNA__588__A2
*497 ANTENNA__588__B1
*498 ANTENNA__590__A3
*499 ANTENNA__624__A2_N
*500 ANTENNA__624__B1
*501 ANTENNA__625__A2
*502 ANTENNA__653__A2
*503 ANTENNA__653__B1
*504 ANTENNA__665__B
*505 ANTENNA__680__C1
*506 ANTENNA__692__C
*507 ANTENNA__692__D_N
*508 ANTENNA__693__A2_N
*509 ANTENNA__693__B1
*510 ANTENNA__708__B
*511 ANTENNA__710__C_N
*512 ANTENNA__727__B
*513 ANTENNA__728__B
*514 ANTENNA__729__A1
*515 ANTENNA__748__A2
*516 ANTENNA__748__C1
*517 ANTENNA__753__B1
*518 ANTENNA__808__D
*519 FILLER_0_0_101
*520 FILLER_0_0_13
*521 FILLER_0_0_136
*522 FILLER_0_0_141
*523 FILLER_0_0_172
*524 FILLER_0_0_213
*525 FILLER_0_0_221
*526 FILLER_0_0_24
*527 FILLER_0_0_241
*528 FILLER_0_0_249
*529 FILLER_0_0_253
*530 FILLER_0_0_276
*531 FILLER_0_0_281
*532 FILLER_0_0_29
*533 FILLER_0_0_307
*534 FILLER_0_0_325
*535 FILLER_0_0_333
*536 FILLER_0_0_35
*537 FILLER_0_0_353
*538 FILLER_0_0_46
*539 FILLER_0_0_54
*540 FILLER_0_0_6
*541 FILLER_0_0_60
*542 FILLER_0_0_64
*543 FILLER_0_0_68
*544 FILLER_0_0_79
*545 FILLER_0_0_83
*546 FILLER_0_0_85
*547 FILLER_0_0_90
*548 FILLER_0_10_105
*549 FILLER_0_10_117
*550 FILLER_0_10_138
*551 FILLER_0_10_141
*552 FILLER_0_10_149
*553 FILLER_0_10_15
*554 FILLER_0_10_157
*555 FILLER_0_10_169
*556 FILLER_0_10_181
*557 FILLER_0_10_197
*558 FILLER_0_10_221
*559 FILLER_0_10_226
*560 FILLER_0_10_249
*561 FILLER_0_10_253
*562 FILLER_0_10_266
*563 FILLER_0_10_27
*564 FILLER_0_10_279
*565 FILLER_0_10_29
*566 FILLER_0_10_291
*567 FILLER_0_10_3
*568 FILLER_0_10_303
*569 FILLER_0_10_307
*570 FILLER_0_10_309
*571 FILLER_0_10_321
*572 FILLER_0_10_333
*573 FILLER_0_10_345
*574 FILLER_0_10_357
*575 FILLER_0_10_363
*576 FILLER_0_10_365
*577 FILLER_0_10_41
*578 FILLER_0_10_53
*579 FILLER_0_10_65
*580 FILLER_0_10_77
*581 FILLER_0_10_83
*582 FILLER_0_10_99
*583 FILLER_0_11_100
*584 FILLER_0_11_110
*585 FILLER_0_11_121
*586 FILLER_0_11_15
*587 FILLER_0_11_156
*588 FILLER_0_11_182
*589 FILLER_0_11_199
*590 FILLER_0_11_203
*591 FILLER_0_11_212
*592 FILLER_0_11_225
*593 FILLER_0_11_237
*594 FILLER_0_11_252
*595 FILLER_0_11_256
*596 FILLER_0_11_263
*597 FILLER_0_11_267
*598 FILLER_0_11_27
*599 FILLER_0_11_275
*600 FILLER_0_11_294
*601 FILLER_0_11_3
*602 FILLER_0_11_306
*603 FILLER_0_11_318
*604 FILLER_0_11_330
*605 FILLER_0_11_337
*606 FILLER_0_11_349
*607 FILLER_0_11_361
*608 FILLER_0_11_367
*609 FILLER_0_11_39
*610 FILLER_0_11_51
*611 FILLER_0_11_55
*612 FILLER_0_11_57
*613 FILLER_0_12_118
*614 FILLER_0_12_130
*615 FILLER_0_12_138
*616 FILLER_0_12_141
*617 FILLER_0_12_15
*618 FILLER_0_12_181
*619 FILLER_0_12_193
*620 FILLER_0_12_197
*621 FILLER_0_12_209
*622 FILLER_0_12_213
*623 FILLER_0_12_224
*624 FILLER_0_12_230
*625 FILLER_0_12_238
*626 FILLER_0_12_242
*627 FILLER_0_12_248
*628 FILLER_0_12_253
*629 FILLER_0_12_260
*630 FILLER_0_12_265
*631 FILLER_0_12_27
*632 FILLER_0_12_277
*633 FILLER_0_12_29
*634 FILLER_0_12_3
*635 FILLER_0_12_303
*636 FILLER_0_12_307
*637 FILLER_0_12_309
*638 FILLER_0_12_321
*639 FILLER_0_12_333
*640 FILLER_0_12_345
*641 FILLER_0_12_357
*642 FILLER_0_12_363
*643 FILLER_0_12_365
*644 FILLER_0_12_41
*645 FILLER_0_12_53
*646 FILLER_0_12_65
*647 FILLER_0_12_77
*648 FILLER_0_12_83
*649 FILLER_0_12_85
*650 FILLER_0_12_93
*651 FILLER_0_13_100
*652 FILLER_0_13_113
*653 FILLER_0_13_136
*654 FILLER_0_13_148
*655 FILLER_0_13_15
*656 FILLER_0_13_160
*657 FILLER_0_13_169
*658 FILLER_0_13_177
*659 FILLER_0_13_187
*660 FILLER_0_13_199
*661 FILLER_0_13_212
*662 FILLER_0_13_223
*663 FILLER_0_13_225
*664 FILLER_0_13_231
*665 FILLER_0_13_237
*666 FILLER_0_13_240
*667 FILLER_0_13_261
*668 FILLER_0_13_27
*669 FILLER_0_13_272
*670 FILLER_0_13_288
*671 FILLER_0_13_3
*672 FILLER_0_13_300
*673 FILLER_0_13_312
*674 FILLER_0_13_324
*675 FILLER_0_13_337
*676 FILLER_0_13_349
*677 FILLER_0_13_361
*678 FILLER_0_13_367
*679 FILLER_0_13_39
*680 FILLER_0_13_51
*681 FILLER_0_13_55
*682 FILLER_0_13_57
*683 FILLER_0_13_69
*684 FILLER_0_13_77
*685 FILLER_0_14_107
*686 FILLER_0_14_113
*687 FILLER_0_14_127
*688 FILLER_0_14_148
*689 FILLER_0_14_15
*690 FILLER_0_14_156
*691 FILLER_0_14_168
*692 FILLER_0_14_176
*693 FILLER_0_14_195
*694 FILLER_0_14_197
*695 FILLER_0_14_215
*696 FILLER_0_14_237
*697 FILLER_0_14_241
*698 FILLER_0_14_248
*699 FILLER_0_14_258
*700 FILLER_0_14_262
*701 FILLER_0_14_27
*702 FILLER_0_14_274
*703 FILLER_0_14_278
*704 FILLER_0_14_287
*705 FILLER_0_14_29
*706 FILLER_0_14_299
*707 FILLER_0_14_3
*708 FILLER_0_14_307
*709 FILLER_0_14_309
*710 FILLER_0_14_321
*711 FILLER_0_14_333
*712 FILLER_0_14_345
*713 FILLER_0_14_357
*714 FILLER_0_14_363
*715 FILLER_0_14_365
*716 FILLER_0_14_41
*717 FILLER_0_14_53
*718 FILLER_0_14_61
*719 FILLER_0_15_113
*720 FILLER_0_15_119
*721 FILLER_0_15_15
*722 FILLER_0_15_156
*723 FILLER_0_15_167
*724 FILLER_0_15_169
*725 FILLER_0_15_180
*726 FILLER_0_15_192
*727 FILLER_0_15_204
*728 FILLER_0_15_216
*729 FILLER_0_15_233
*730 FILLER_0_15_246
*731 FILLER_0_15_252
*732 FILLER_0_15_258
*733 FILLER_0_15_27
*734 FILLER_0_15_270
*735 FILLER_0_15_279
*736 FILLER_0_15_281
*737 FILLER_0_15_293
*738 FILLER_0_15_3
*739 FILLER_0_15_305
*740 FILLER_0_15_317
*741 FILLER_0_15_329
*742 FILLER_0_15_335
*743 FILLER_0_15_337
*744 FILLER_0_15_349
*745 FILLER_0_15_361
*746 FILLER_0_15_367
*747 FILLER_0_15_39
*748 FILLER_0_15_51
*749 FILLER_0_15_55
*750 FILLER_0_15_57
*751 FILLER_0_15_69
*752 FILLER_0_15_81
*753 FILLER_0_15_87
*754 FILLER_0_16_112
*755 FILLER_0_16_116
*756 FILLER_0_16_127
*757 FILLER_0_16_139
*758 FILLER_0_16_141
*759 FILLER_0_16_15
*760 FILLER_0_16_170
*761 FILLER_0_16_182
*762 FILLER_0_16_194
*763 FILLER_0_16_197
*764 FILLER_0_16_203
*765 FILLER_0_16_215
*766 FILLER_0_16_227
*767 FILLER_0_16_239
*768 FILLER_0_16_251
*769 FILLER_0_16_253
*770 FILLER_0_16_257
*771 FILLER_0_16_267
*772 FILLER_0_16_27
*773 FILLER_0_16_279
*774 FILLER_0_16_29
*775 FILLER_0_16_297
*776 FILLER_0_16_3
*777 FILLER_0_16_305
*778 FILLER_0_16_309
*779 FILLER_0_16_321
*780 FILLER_0_16_333
*781 FILLER_0_16_345
*782 FILLER_0_16_357
*783 FILLER_0_16_363
*784 FILLER_0_16_365
*785 FILLER_0_16_41
*786 FILLER_0_16_53
*787 FILLER_0_16_65
*788 FILLER_0_16_77
*789 FILLER_0_16_83
*790 FILLER_0_16_85
*791 FILLER_0_16_95
*792 FILLER_0_17_104
*793 FILLER_0_17_108
*794 FILLER_0_17_124
*795 FILLER_0_17_136
*796 FILLER_0_17_146
*797 FILLER_0_17_15
*798 FILLER_0_17_150
*799 FILLER_0_17_154
*800 FILLER_0_17_166
*801 FILLER_0_17_172
*802 FILLER_0_17_184
*803 FILLER_0_17_190
*804 FILLER_0_17_196
*805 FILLER_0_17_200
*806 FILLER_0_17_215
*807 FILLER_0_17_223
*808 FILLER_0_17_237
*809 FILLER_0_17_243
*810 FILLER_0_17_251
*811 FILLER_0_17_27
*812 FILLER_0_17_277
*813 FILLER_0_17_281
*814 FILLER_0_17_287
*815 FILLER_0_17_3
*816 FILLER_0_17_302
*817 FILLER_0_17_314
*818 FILLER_0_17_326
*819 FILLER_0_17_334
*820 FILLER_0_17_337
*821 FILLER_0_17_349
*822 FILLER_0_17_361
*823 FILLER_0_17_367
*824 FILLER_0_17_39
*825 FILLER_0_17_51
*826 FILLER_0_17_55
*827 FILLER_0_17_57
*828 FILLER_0_17_69
*829 FILLER_0_17_81
*830 FILLER_0_18_103
*831 FILLER_0_18_120
*832 FILLER_0_18_135
*833 FILLER_0_18_139
*834 FILLER_0_18_141
*835 FILLER_0_18_15
*836 FILLER_0_18_152
*837 FILLER_0_18_160
*838 FILLER_0_18_180
*839 FILLER_0_18_201
*840 FILLER_0_18_213
*841 FILLER_0_18_225
*842 FILLER_0_18_232
*843 FILLER_0_18_249
*844 FILLER_0_18_263
*845 FILLER_0_18_269
*846 FILLER_0_18_27
*847 FILLER_0_18_277
*848 FILLER_0_18_29
*849 FILLER_0_18_3
*850 FILLER_0_18_305
*851 FILLER_0_18_309
*852 FILLER_0_18_321
*853 FILLER_0_18_333
*854 FILLER_0_18_345
*855 FILLER_0_18_357
*856 FILLER_0_18_363
*857 FILLER_0_18_365
*858 FILLER_0_18_41
*859 FILLER_0_18_53
*860 FILLER_0_18_65
*861 FILLER_0_18_77
*862 FILLER_0_18_83
*863 FILLER_0_18_85
*864 FILLER_0_18_99
*865 FILLER_0_19_104
*866 FILLER_0_19_128
*867 FILLER_0_19_140
*868 FILLER_0_19_146
*869 FILLER_0_19_15
*870 FILLER_0_19_163
*871 FILLER_0_19_167
*872 FILLER_0_19_178
*873 FILLER_0_19_190
*874 FILLER_0_19_197
*875 FILLER_0_19_205
*876 FILLER_0_19_217
*877 FILLER_0_19_223
*878 FILLER_0_19_225
*879 FILLER_0_19_232
*880 FILLER_0_19_244
*881 FILLER_0_19_256
*882 FILLER_0_19_268
*883 FILLER_0_19_27
*884 FILLER_0_19_281
*885 FILLER_0_19_296
*886 FILLER_0_19_3
*887 FILLER_0_19_308
*888 FILLER_0_19_320
*889 FILLER_0_19_332
*890 FILLER_0_19_337
*891 FILLER_0_19_349
*892 FILLER_0_19_361
*893 FILLER_0_19_367
*894 FILLER_0_19_39
*895 FILLER_0_19_51
*896 FILLER_0_19_55
*897 FILLER_0_19_57
*898 FILLER_0_19_69
*899 FILLER_0_19_81
*900 FILLER_0_1_109
*901 FILLER_0_1_113
*902 FILLER_0_1_119
*903 FILLER_0_1_134
*904 FILLER_0_1_15
*905 FILLER_0_1_158
*906 FILLER_0_1_166
*907 FILLER_0_1_169
*908 FILLER_0_1_181
*909 FILLER_0_1_223
*910 FILLER_0_1_265
*911 FILLER_0_1_27
*912 FILLER_0_1_277
*913 FILLER_0_1_3
*914 FILLER_0_1_327
*915 FILLER_0_1_335
*916 FILLER_0_1_356
*917 FILLER_0_1_57
*918 FILLER_0_20_102
*919 FILLER_0_20_106
*920 FILLER_0_20_118
*921 FILLER_0_20_130
*922 FILLER_0_20_138
*923 FILLER_0_20_15
*924 FILLER_0_20_158
*925 FILLER_0_20_164
*926 FILLER_0_20_176
*927 FILLER_0_20_192
*928 FILLER_0_20_197
*929 FILLER_0_20_201
*930 FILLER_0_20_209
*931 FILLER_0_20_221
*932 FILLER_0_20_233
*933 FILLER_0_20_237
*934 FILLER_0_20_244
*935 FILLER_0_20_250
*936 FILLER_0_20_261
*937 FILLER_0_20_27
*938 FILLER_0_20_278
*939 FILLER_0_20_29
*940 FILLER_0_20_291
*941 FILLER_0_20_3
*942 FILLER_0_20_303
*943 FILLER_0_20_307
*944 FILLER_0_20_309
*945 FILLER_0_20_321
*946 FILLER_0_20_333
*947 FILLER_0_20_345
*948 FILLER_0_20_357
*949 FILLER_0_20_363
*950 FILLER_0_20_365
*951 FILLER_0_20_41
*952 FILLER_0_20_53
*953 FILLER_0_20_65
*954 FILLER_0_20_77
*955 FILLER_0_20_83
*956 FILLER_0_20_85
*957 FILLER_0_20_98
*958 FILLER_0_21_107
*959 FILLER_0_21_111
*960 FILLER_0_21_113
*961 FILLER_0_21_119
*962 FILLER_0_21_129
*963 FILLER_0_21_133
*964 FILLER_0_21_137
*965 FILLER_0_21_15
*966 FILLER_0_21_161
*967 FILLER_0_21_167
*968 FILLER_0_21_169
*969 FILLER_0_21_181
*970 FILLER_0_21_187
*971 FILLER_0_21_196
*972 FILLER_0_21_203
*973 FILLER_0_21_211
*974 FILLER_0_21_216
*975 FILLER_0_21_228
*976 FILLER_0_21_234
*977 FILLER_0_21_259
*978 FILLER_0_21_27
*979 FILLER_0_21_272
*980 FILLER_0_21_281
*981 FILLER_0_21_293
*982 FILLER_0_21_3
*983 FILLER_0_21_305
*984 FILLER_0_21_317
*985 FILLER_0_21_329
*986 FILLER_0_21_335
*987 FILLER_0_21_337
*988 FILLER_0_21_349
*989 FILLER_0_21_361
*990 FILLER_0_21_367
*991 FILLER_0_21_39
*992 FILLER_0_21_51
*993 FILLER_0_21_55
*994 FILLER_0_21_57
*995 FILLER_0_21_69
*996 FILLER_0_21_81
*997 FILLER_0_21_89
*998 FILLER_0_22_109
*999 FILLER_0_22_136
*1000 FILLER_0_22_149
*1001 FILLER_0_22_15
*1002 FILLER_0_22_166
*1003 FILLER_0_22_187
*1004 FILLER_0_22_195
*1005 FILLER_0_22_197
*1006 FILLER_0_22_209
*1007 FILLER_0_22_217
*1008 FILLER_0_22_231
*1009 FILLER_0_22_239
*1010 FILLER_0_22_250
*1011 FILLER_0_22_258
*1012 FILLER_0_22_27
*1013 FILLER_0_22_272
*1014 FILLER_0_22_284
*1015 FILLER_0_22_29
*1016 FILLER_0_22_296
*1017 FILLER_0_22_3
*1018 FILLER_0_22_309
*1019 FILLER_0_22_321
*1020 FILLER_0_22_333
*1021 FILLER_0_22_345
*1022 FILLER_0_22_357
*1023 FILLER_0_22_363
*1024 FILLER_0_22_365
*1025 FILLER_0_22_41
*1026 FILLER_0_22_53
*1027 FILLER_0_22_65
*1028 FILLER_0_22_77
*1029 FILLER_0_22_83
*1030 FILLER_0_22_85
*1031 FILLER_0_22_99
*1032 FILLER_0_23_104
*1033 FILLER_0_23_113
*1034 FILLER_0_23_117
*1035 FILLER_0_23_126
*1036 FILLER_0_23_134
*1037 FILLER_0_23_146
*1038 FILLER_0_23_15
*1039 FILLER_0_23_158
*1040 FILLER_0_23_166
*1041 FILLER_0_23_169
*1042 FILLER_0_23_184
*1043 FILLER_0_23_196
*1044 FILLER_0_23_206
*1045 FILLER_0_23_222
*1046 FILLER_0_23_225
*1047 FILLER_0_23_237
*1048 FILLER_0_23_249
*1049 FILLER_0_23_261
*1050 FILLER_0_23_27
*1051 FILLER_0_23_273
*1052 FILLER_0_23_279
*1053 FILLER_0_23_281
*1054 FILLER_0_23_293
*1055 FILLER_0_23_3
*1056 FILLER_0_23_305
*1057 FILLER_0_23_317
*1058 FILLER_0_23_329
*1059 FILLER_0_23_335
*1060 FILLER_0_23_337
*1061 FILLER_0_23_349
*1062 FILLER_0_23_361
*1063 FILLER_0_23_367
*1064 FILLER_0_23_39
*1065 FILLER_0_23_51
*1066 FILLER_0_23_55
*1067 FILLER_0_23_57
*1068 FILLER_0_23_69
*1069 FILLER_0_23_81
*1070 FILLER_0_24_102
*1071 FILLER_0_24_113
*1072 FILLER_0_24_128
*1073 FILLER_0_24_138
*1074 FILLER_0_24_141
*1075 FILLER_0_24_147
*1076 FILLER_0_24_15
*1077 FILLER_0_24_155
*1078 FILLER_0_24_167
*1079 FILLER_0_24_182
*1080 FILLER_0_24_194
*1081 FILLER_0_24_197
*1082 FILLER_0_24_209
*1083 FILLER_0_24_223
*1084 FILLER_0_24_235
*1085 FILLER_0_24_247
*1086 FILLER_0_24_251
*1087 FILLER_0_24_253
*1088 FILLER_0_24_262
*1089 FILLER_0_24_27
*1090 FILLER_0_24_277
*1091 FILLER_0_24_29
*1092 FILLER_0_24_292
*1093 FILLER_0_24_3
*1094 FILLER_0_24_304
*1095 FILLER_0_24_309
*1096 FILLER_0_24_321
*1097 FILLER_0_24_333
*1098 FILLER_0_24_345
*1099 FILLER_0_24_357
*1100 FILLER_0_24_363
*1101 FILLER_0_24_365
*1102 FILLER_0_24_41
*1103 FILLER_0_24_53
*1104 FILLER_0_24_65
*1105 FILLER_0_24_77
*1106 FILLER_0_24_83
*1107 FILLER_0_24_85
*1108 FILLER_0_24_89
*1109 FILLER_0_24_94
*1110 FILLER_0_25_106
*1111 FILLER_0_25_113
*1112 FILLER_0_25_15
*1113 FILLER_0_25_164
*1114 FILLER_0_25_169
*1115 FILLER_0_25_222
*1116 FILLER_0_25_225
*1117 FILLER_0_25_234
*1118 FILLER_0_25_238
*1119 FILLER_0_25_251
*1120 FILLER_0_25_268
*1121 FILLER_0_25_27
*1122 FILLER_0_25_277
*1123 FILLER_0_25_297
*1124 FILLER_0_25_3
*1125 FILLER_0_25_309
*1126 FILLER_0_25_321
*1127 FILLER_0_25_333
*1128 FILLER_0_25_337
*1129 FILLER_0_25_349
*1130 FILLER_0_25_361
*1131 FILLER_0_25_367
*1132 FILLER_0_25_39
*1133 FILLER_0_25_51
*1134 FILLER_0_25_55
*1135 FILLER_0_25_57
*1136 FILLER_0_25_69
*1137 FILLER_0_25_81
*1138 FILLER_0_25_93
*1139 FILLER_0_26_111
*1140 FILLER_0_26_123
*1141 FILLER_0_26_135
*1142 FILLER_0_26_139
*1143 FILLER_0_26_141
*1144 FILLER_0_26_145
*1145 FILLER_0_26_15
*1146 FILLER_0_26_151
*1147 FILLER_0_26_155
*1148 FILLER_0_26_167
*1149 FILLER_0_26_182
*1150 FILLER_0_26_194
*1151 FILLER_0_26_197
*1152 FILLER_0_26_209
*1153 FILLER_0_26_235
*1154 FILLER_0_26_247
*1155 FILLER_0_26_251
*1156 FILLER_0_26_253
*1157 FILLER_0_26_265
*1158 FILLER_0_26_27
*1159 FILLER_0_26_277
*1160 FILLER_0_26_289
*1161 FILLER_0_26_29
*1162 FILLER_0_26_3
*1163 FILLER_0_26_301
*1164 FILLER_0_26_307
*1165 FILLER_0_26_309
*1166 FILLER_0_26_321
*1167 FILLER_0_26_333
*1168 FILLER_0_26_345
*1169 FILLER_0_26_357
*1170 FILLER_0_26_363
*1171 FILLER_0_26_365
*1172 FILLER_0_26_41
*1173 FILLER_0_26_53
*1174 FILLER_0_26_65
*1175 FILLER_0_26_77
*1176 FILLER_0_26_83
*1177 FILLER_0_26_99
*1178 FILLER_0_27_106
*1179 FILLER_0_27_113
*1180 FILLER_0_27_125
*1181 FILLER_0_27_133
*1182 FILLER_0_27_145
*1183 FILLER_0_27_15
*1184 FILLER_0_27_153
*1185 FILLER_0_27_160
*1186 FILLER_0_27_167
*1187 FILLER_0_27_179
*1188 FILLER_0_27_187
*1189 FILLER_0_27_194
*1190 FILLER_0_27_206
*1191 FILLER_0_27_222
*1192 FILLER_0_27_234
*1193 FILLER_0_27_246
*1194 FILLER_0_27_258
*1195 FILLER_0_27_27
*1196 FILLER_0_27_270
*1197 FILLER_0_27_278
*1198 FILLER_0_27_281
*1199 FILLER_0_27_293
*1200 FILLER_0_27_3
*1201 FILLER_0_27_305
*1202 FILLER_0_27_317
*1203 FILLER_0_27_329
*1204 FILLER_0_27_335
*1205 FILLER_0_27_337
*1206 FILLER_0_27_349
*1207 FILLER_0_27_361
*1208 FILLER_0_27_367
*1209 FILLER_0_27_39
*1210 FILLER_0_27_51
*1211 FILLER_0_27_55
*1212 FILLER_0_27_57
*1213 FILLER_0_27_69
*1214 FILLER_0_27_81
*1215 FILLER_0_27_89
*1216 FILLER_0_28_114
*1217 FILLER_0_28_118
*1218 FILLER_0_28_125
*1219 FILLER_0_28_141
*1220 FILLER_0_28_15
*1221 FILLER_0_28_157
*1222 FILLER_0_28_179
*1223 FILLER_0_28_207
*1224 FILLER_0_28_219
*1225 FILLER_0_28_231
*1226 FILLER_0_28_243
*1227 FILLER_0_28_251
*1228 FILLER_0_28_253
*1229 FILLER_0_28_265
*1230 FILLER_0_28_27
*1231 FILLER_0_28_277
*1232 FILLER_0_28_289
*1233 FILLER_0_28_29
*1234 FILLER_0_28_3
*1235 FILLER_0_28_301
*1236 FILLER_0_28_307
*1237 FILLER_0_28_309
*1238 FILLER_0_28_321
*1239 FILLER_0_28_333
*1240 FILLER_0_28_345
*1241 FILLER_0_28_357
*1242 FILLER_0_28_363
*1243 FILLER_0_28_365
*1244 FILLER_0_28_41
*1245 FILLER_0_28_53
*1246 FILLER_0_28_65
*1247 FILLER_0_28_77
*1248 FILLER_0_28_83
*1249 FILLER_0_28_85
*1250 FILLER_0_28_97
*1251 FILLER_0_29_105
*1252 FILLER_0_29_111
*1253 FILLER_0_29_131
*1254 FILLER_0_29_143
*1255 FILLER_0_29_15
*1256 FILLER_0_29_162
*1257 FILLER_0_29_169
*1258 FILLER_0_29_181
*1259 FILLER_0_29_187
*1260 FILLER_0_29_192
*1261 FILLER_0_29_204
*1262 FILLER_0_29_210
*1263 FILLER_0_29_225
*1264 FILLER_0_29_237
*1265 FILLER_0_29_249
*1266 FILLER_0_29_261
*1267 FILLER_0_29_27
*1268 FILLER_0_29_273
*1269 FILLER_0_29_279
*1270 FILLER_0_29_281
*1271 FILLER_0_29_293
*1272 FILLER_0_29_3
*1273 FILLER_0_29_305
*1274 FILLER_0_29_317
*1275 FILLER_0_29_329
*1276 FILLER_0_29_335
*1277 FILLER_0_29_337
*1278 FILLER_0_29_349
*1279 FILLER_0_29_361
*1280 FILLER_0_29_367
*1281 FILLER_0_29_39
*1282 FILLER_0_29_51
*1283 FILLER_0_29_55
*1284 FILLER_0_29_57
*1285 FILLER_0_29_69
*1286 FILLER_0_29_81
*1287 FILLER_0_29_93
*1288 FILLER_0_2_141
*1289 FILLER_0_2_15
*1290 FILLER_0_2_153
*1291 FILLER_0_2_191
*1292 FILLER_0_2_195
*1293 FILLER_0_2_206
*1294 FILLER_0_2_212
*1295 FILLER_0_2_249
*1296 FILLER_0_2_27
*1297 FILLER_0_2_29
*1298 FILLER_0_2_293
*1299 FILLER_0_2_299
*1300 FILLER_0_2_3
*1301 FILLER_0_2_304
*1302 FILLER_0_2_357
*1303 FILLER_0_2_363
*1304 FILLER_0_2_365
*1305 FILLER_0_2_37
*1306 FILLER_0_2_85
*1307 FILLER_0_2_93
*1308 FILLER_0_30_109
*1309 FILLER_0_30_117
*1310 FILLER_0_30_133
*1311 FILLER_0_30_139
*1312 FILLER_0_30_141
*1313 FILLER_0_30_15
*1314 FILLER_0_30_153
*1315 FILLER_0_30_172
*1316 FILLER_0_30_189
*1317 FILLER_0_30_195
*1318 FILLER_0_30_197
*1319 FILLER_0_30_221
*1320 FILLER_0_30_233
*1321 FILLER_0_30_245
*1322 FILLER_0_30_251
*1323 FILLER_0_30_253
*1324 FILLER_0_30_265
*1325 FILLER_0_30_27
*1326 FILLER_0_30_277
*1327 FILLER_0_30_289
*1328 FILLER_0_30_29
*1329 FILLER_0_30_3
*1330 FILLER_0_30_301
*1331 FILLER_0_30_307
*1332 FILLER_0_30_309
*1333 FILLER_0_30_321
*1334 FILLER_0_30_333
*1335 FILLER_0_30_345
*1336 FILLER_0_30_357
*1337 FILLER_0_30_363
*1338 FILLER_0_30_365
*1339 FILLER_0_30_41
*1340 FILLER_0_30_53
*1341 FILLER_0_30_65
*1342 FILLER_0_30_77
*1343 FILLER_0_30_83
*1344 FILLER_0_30_85
*1345 FILLER_0_30_97
*1346 FILLER_0_31_105
*1347 FILLER_0_31_111
*1348 FILLER_0_31_113
*1349 FILLER_0_31_125
*1350 FILLER_0_31_137
*1351 FILLER_0_31_149
*1352 FILLER_0_31_15
*1353 FILLER_0_31_161
*1354 FILLER_0_31_167
*1355 FILLER_0_31_169
*1356 FILLER_0_31_181
*1357 FILLER_0_31_191
*1358 FILLER_0_31_203
*1359 FILLER_0_31_215
*1360 FILLER_0_31_223
*1361 FILLER_0_31_225
*1362 FILLER_0_31_237
*1363 FILLER_0_31_249
*1364 FILLER_0_31_261
*1365 FILLER_0_31_27
*1366 FILLER_0_31_273
*1367 FILLER_0_31_279
*1368 FILLER_0_31_281
*1369 FILLER_0_31_293
*1370 FILLER_0_31_3
*1371 FILLER_0_31_305
*1372 FILLER_0_31_317
*1373 FILLER_0_31_329
*1374 FILLER_0_31_335
*1375 FILLER_0_31_337
*1376 FILLER_0_31_349
*1377 FILLER_0_31_361
*1378 FILLER_0_31_367
*1379 FILLER_0_31_39
*1380 FILLER_0_31_51
*1381 FILLER_0_31_55
*1382 FILLER_0_31_57
*1383 FILLER_0_31_69
*1384 FILLER_0_31_81
*1385 FILLER_0_31_93
*1386 FILLER_0_32_109
*1387 FILLER_0_32_121
*1388 FILLER_0_32_133
*1389 FILLER_0_32_139
*1390 FILLER_0_32_141
*1391 FILLER_0_32_15
*1392 FILLER_0_32_153
*1393 FILLER_0_32_165
*1394 FILLER_0_32_177
*1395 FILLER_0_32_189
*1396 FILLER_0_32_195
*1397 FILLER_0_32_197
*1398 FILLER_0_32_209
*1399 FILLER_0_32_221
*1400 FILLER_0_32_233
*1401 FILLER_0_32_245
*1402 FILLER_0_32_251
*1403 FILLER_0_32_253
*1404 FILLER_0_32_265
*1405 FILLER_0_32_27
*1406 FILLER_0_32_277
*1407 FILLER_0_32_289
*1408 FILLER_0_32_29
*1409 FILLER_0_32_3
*1410 FILLER_0_32_301
*1411 FILLER_0_32_307
*1412 FILLER_0_32_309
*1413 FILLER_0_32_321
*1414 FILLER_0_32_333
*1415 FILLER_0_32_345
*1416 FILLER_0_32_357
*1417 FILLER_0_32_363
*1418 FILLER_0_32_365
*1419 FILLER_0_32_41
*1420 FILLER_0_32_53
*1421 FILLER_0_32_65
*1422 FILLER_0_32_77
*1423 FILLER_0_32_83
*1424 FILLER_0_32_85
*1425 FILLER_0_32_97
*1426 FILLER_0_33_105
*1427 FILLER_0_33_111
*1428 FILLER_0_33_113
*1429 FILLER_0_33_125
*1430 FILLER_0_33_137
*1431 FILLER_0_33_149
*1432 FILLER_0_33_15
*1433 FILLER_0_33_161
*1434 FILLER_0_33_167
*1435 FILLER_0_33_169
*1436 FILLER_0_33_181
*1437 FILLER_0_33_193
*1438 FILLER_0_33_205
*1439 FILLER_0_33_217
*1440 FILLER_0_33_223
*1441 FILLER_0_33_225
*1442 FILLER_0_33_237
*1443 FILLER_0_33_249
*1444 FILLER_0_33_261
*1445 FILLER_0_33_27
*1446 FILLER_0_33_273
*1447 FILLER_0_33_279
*1448 FILLER_0_33_281
*1449 FILLER_0_33_293
*1450 FILLER_0_33_3
*1451 FILLER_0_33_305
*1452 FILLER_0_33_317
*1453 FILLER_0_33_329
*1454 FILLER_0_33_335
*1455 FILLER_0_33_337
*1456 FILLER_0_33_349
*1457 FILLER_0_33_361
*1458 FILLER_0_33_367
*1459 FILLER_0_33_39
*1460 FILLER_0_33_51
*1461 FILLER_0_33_55
*1462 FILLER_0_33_57
*1463 FILLER_0_33_69
*1464 FILLER_0_33_81
*1465 FILLER_0_33_93
*1466 FILLER_0_34_109
*1467 FILLER_0_34_121
*1468 FILLER_0_34_133
*1469 FILLER_0_34_139
*1470 FILLER_0_34_141
*1471 FILLER_0_34_15
*1472 FILLER_0_34_153
*1473 FILLER_0_34_165
*1474 FILLER_0_34_177
*1475 FILLER_0_34_189
*1476 FILLER_0_34_195
*1477 FILLER_0_34_197
*1478 FILLER_0_34_209
*1479 FILLER_0_34_221
*1480 FILLER_0_34_233
*1481 FILLER_0_34_245
*1482 FILLER_0_34_251
*1483 FILLER_0_34_253
*1484 FILLER_0_34_265
*1485 FILLER_0_34_27
*1486 FILLER_0_34_277
*1487 FILLER_0_34_289
*1488 FILLER_0_34_29
*1489 FILLER_0_34_3
*1490 FILLER_0_34_301
*1491 FILLER_0_34_307
*1492 FILLER_0_34_309
*1493 FILLER_0_34_321
*1494 FILLER_0_34_333
*1495 FILLER_0_34_345
*1496 FILLER_0_34_357
*1497 FILLER_0_34_363
*1498 FILLER_0_34_365
*1499 FILLER_0_34_41
*1500 FILLER_0_34_53
*1501 FILLER_0_34_65
*1502 FILLER_0_34_77
*1503 FILLER_0_34_83
*1504 FILLER_0_34_85
*1505 FILLER_0_34_97
*1506 FILLER_0_35_105
*1507 FILLER_0_35_111
*1508 FILLER_0_35_113
*1509 FILLER_0_35_125
*1510 FILLER_0_35_137
*1511 FILLER_0_35_149
*1512 FILLER_0_35_15
*1513 FILLER_0_35_161
*1514 FILLER_0_35_167
*1515 FILLER_0_35_169
*1516 FILLER_0_35_181
*1517 FILLER_0_35_193
*1518 FILLER_0_35_205
*1519 FILLER_0_35_217
*1520 FILLER_0_35_223
*1521 FILLER_0_35_225
*1522 FILLER_0_35_237
*1523 FILLER_0_35_249
*1524 FILLER_0_35_261
*1525 FILLER_0_35_27
*1526 FILLER_0_35_273
*1527 FILLER_0_35_279
*1528 FILLER_0_35_281
*1529 FILLER_0_35_293
*1530 FILLER_0_35_3
*1531 FILLER_0_35_305
*1532 FILLER_0_35_317
*1533 FILLER_0_35_329
*1534 FILLER_0_35_335
*1535 FILLER_0_35_337
*1536 FILLER_0_35_349
*1537 FILLER_0_35_361
*1538 FILLER_0_35_367
*1539 FILLER_0_35_39
*1540 FILLER_0_35_51
*1541 FILLER_0_35_55
*1542 FILLER_0_35_57
*1543 FILLER_0_35_69
*1544 FILLER_0_35_81
*1545 FILLER_0_35_93
*1546 FILLER_0_36_109
*1547 FILLER_0_36_121
*1548 FILLER_0_36_133
*1549 FILLER_0_36_139
*1550 FILLER_0_36_141
*1551 FILLER_0_36_15
*1552 FILLER_0_36_153
*1553 FILLER_0_36_165
*1554 FILLER_0_36_177
*1555 FILLER_0_36_189
*1556 FILLER_0_36_195
*1557 FILLER_0_36_197
*1558 FILLER_0_36_209
*1559 FILLER_0_36_221
*1560 FILLER_0_36_233
*1561 FILLER_0_36_245
*1562 FILLER_0_36_251
*1563 FILLER_0_36_253
*1564 FILLER_0_36_265
*1565 FILLER_0_36_27
*1566 FILLER_0_36_277
*1567 FILLER_0_36_289
*1568 FILLER_0_36_29
*1569 FILLER_0_36_3
*1570 FILLER_0_36_301
*1571 FILLER_0_36_307
*1572 FILLER_0_36_309
*1573 FILLER_0_36_321
*1574 FILLER_0_36_333
*1575 FILLER_0_36_345
*1576 FILLER_0_36_357
*1577 FILLER_0_36_363
*1578 FILLER_0_36_365
*1579 FILLER_0_36_41
*1580 FILLER_0_36_53
*1581 FILLER_0_36_65
*1582 FILLER_0_36_77
*1583 FILLER_0_36_83
*1584 FILLER_0_36_85
*1585 FILLER_0_36_97
*1586 FILLER_0_37_105
*1587 FILLER_0_37_111
*1588 FILLER_0_37_113
*1589 FILLER_0_37_125
*1590 FILLER_0_37_137
*1591 FILLER_0_37_149
*1592 FILLER_0_37_15
*1593 FILLER_0_37_161
*1594 FILLER_0_37_167
*1595 FILLER_0_37_169
*1596 FILLER_0_37_181
*1597 FILLER_0_37_193
*1598 FILLER_0_37_205
*1599 FILLER_0_37_217
*1600 FILLER_0_37_223
*1601 FILLER_0_37_225
*1602 FILLER_0_37_237
*1603 FILLER_0_37_249
*1604 FILLER_0_37_261
*1605 FILLER_0_37_27
*1606 FILLER_0_37_273
*1607 FILLER_0_37_279
*1608 FILLER_0_37_281
*1609 FILLER_0_37_293
*1610 FILLER_0_37_3
*1611 FILLER_0_37_305
*1612 FILLER_0_37_317
*1613 FILLER_0_37_329
*1614 FILLER_0_37_335
*1615 FILLER_0_37_337
*1616 FILLER_0_37_349
*1617 FILLER_0_37_361
*1618 FILLER_0_37_367
*1619 FILLER_0_37_39
*1620 FILLER_0_37_51
*1621 FILLER_0_37_55
*1622 FILLER_0_37_57
*1623 FILLER_0_37_69
*1624 FILLER_0_37_81
*1625 FILLER_0_37_93
*1626 FILLER_0_38_109
*1627 FILLER_0_38_121
*1628 FILLER_0_38_133
*1629 FILLER_0_38_139
*1630 FILLER_0_38_141
*1631 FILLER_0_38_15
*1632 FILLER_0_38_153
*1633 FILLER_0_38_165
*1634 FILLER_0_38_177
*1635 FILLER_0_38_189
*1636 FILLER_0_38_195
*1637 FILLER_0_38_197
*1638 FILLER_0_38_209
*1639 FILLER_0_38_221
*1640 FILLER_0_38_233