*SPEF "ieee 1481-1999"
*DESIGN "vmsu_8bit_top"
*DATE "11:11:11 Fri 11 11, 1111"
*VENDOR "OpenRCX"
*PROGRAM "Parallel Extraction"
*VERSION "1.0"
*DESIGN_FLOW "NAME_SCOPE LOCAL" "PIN_CAP NONE"
*DIVIDER /
*DELIMITER :
*BUS_DELIMITER []
*T_UNIT 1 NS
*C_UNIT 1 PF
*R_UNIT 1 OHM
*L_UNIT 1 HENRY

*NAME_MAP
*1 a[0]
*2 a[1]
*3 a[2]
*4 a[3]
*5 a[4]
*6 a[5]
*7 a[6]
*8 a[7]
*9 b[0]
*10 b[1]
*11 b[2]
*12 b[3]
*13 b[4]
*14 b[5]
*15 b[6]
*16 b[7]
*17 clk
*18 control
*19 p[0]
*20 p[10]
*21 p[11]
*22 p[12]
*23 p[13]
*24 p[14]
*25 p[15]
*26 p[1]
*27 p[2]
*28 p[3]
*29 p[4]
*30 p[5]
*31 p[6]
*32 p[7]
*33 p[8]
*34 p[9]
*35 rst
*38 FA0\.q
*39 FA1\.q
*40 FA2\.q
*41 FA3\.q
*42 FA4\.q
*43 FA5\.q
*44 FA6\.q
*45 FA7\.q
*46 FB0\.q
*47 FB1\.q
*48 FB2\.q
*49 FB3\.q
*50 FB4\.q
*51 FB5\.q
*52 FB6\.q
*53 FB7\.q
*54 FC\.q
*55 FP0\.d
*56 FP1\.d
*57 FP10\.d
*58 FP11\.d
*59 FP12\.d
*60 FP13\.d
*61 FP14\.d
*62 FP15\.d
*63 FP2\.d
*64 FP3\.d
*65 FP4\.d
*66 FP5\.d
*67 FP6\.d
*68 FP7\.d
*69 FP8\.d
*70 FP9\.d
*71 _000_
*72 _001_
*73 _002_
*74 _003_
*75 _004_
*76 _005_
*77 _006_
*78 _007_
*79 _008_
*80 _009_
*81 _010_
*82 _011_
*83 _012_
*84 _013_
*85 _014_
*86 _015_
*87 _016_
*88 _017_
*89 _018_
*90 _019_
*91 _020_
*92 _021_
*93 _022_
*94 _023_
*95 _024_
*96 _025_
*97 _026_
*98 _027_
*99 _028_
*100 _029_
*101 _030_
*102 _031_
*103 _032_
*104 _033_
*105 _034_
*106 _035_
*107 _036_
*108 _037_
*109 _038_
*110 _039_
*111 _040_
*112 _041_
*113 _042_
*114 _043_
*115 _044_
*116 _045_
*117 _046_
*118 _047_
*119 _048_
*120 _049_
*121 _050_
*122 _051_
*123 _052_
*124 _053_
*125 _054_
*126 _055_
*127 _056_
*128 _057_
*129 _058_
*130 _059_
*131 _060_
*132 _061_
*133 _062_
*134 _063_
*135 _064_
*136 _065_
*137 _066_
*138 _067_
*139 _068_
*140 _069_
*141 _070_
*142 _071_
*143 _072_
*144 _073_
*145 _074_
*146 _075_
*147 _076_
*148 _077_
*149 _078_
*150 _079_
*151 _080_
*152 _081_
*153 _082_
*154 _083_
*155 _084_
*156 _085_
*157 _086_
*158 _087_
*159 _088_
*160 _089_
*161 _090_
*162 _091_
*163 _092_
*164 _093_
*165 _094_
*166 _095_
*167 _096_
*168 _097_
*169 _098_
*170 _099_
*171 _100_
*172 _101_
*173 _102_
*174 _103_
*175 _104_
*176 _105_
*177 _106_
*178 _107_
*179 _108_
*180 _109_
*181 _110_
*182 _111_
*183 _112_
*184 _113_
*185 _114_
*186 _115_
*187 _116_
*188 _117_
*189 _118_
*190 _119_
*191 _120_
*192 _121_
*193 _122_
*194 _123_
*195 _124_
*196 _125_
*197 _126_
*198 _127_
*199 _128_
*200 _129_
*201 _130_
*202 _131_
*203 _132_
*204 _133_
*205 _134_
*206 _135_
*207 _136_
*208 _137_
*209 _138_
*210 _139_
*211 _140_
*212 _141_
*213 _142_
*214 _143_
*215 _144_
*216 _145_
*217 _146_
*218 _147_
*219 _148_
*220 _149_
*221 _150_
*222 _151_
*223 _152_
*224 _153_
*225 _154_
*226 _155_
*227 _156_
*228 _157_
*229 _158_
*230 _159_
*231 _160_
*232 _161_
*233 _162_
*234 _163_
*235 _164_
*236 _165_
*237 _166_
*238 _167_
*239 _168_
*240 _169_
*241 _170_
*242 _171_
*243 _172_
*244 _173_
*245 _174_
*246 _175_
*247 _176_
*248 _177_
*249 _178_
*250 _179_
*251 _180_
*252 _181_
*253 _182_
*254 _183_
*255 _184_
*256 _185_
*257 _186_
*258 _187_
*259 _188_
*260 _189_
*261 _190_
*262 _191_
*263 _192_
*264 _193_
*265 _194_
*266 _195_
*267 _196_
*268 _197_
*269 _198_
*270 _199_
*271 _200_
*272 _201_
*273 _202_
*274 _203_
*275 _204_
*276 _205_
*277 _206_
*278 _207_
*279 _208_
*280 _209_
*281 _210_
*282 _211_
*283 _212_
*284 _213_
*285 _214_
*286 _215_
*287 _216_
*288 _217_
*289 _218_
*290 _219_
*291 _220_
*292 _221_
*293 _222_
*294 _223_
*295 _224_
*296 _225_
*297 _226_
*298 _227_
*299 _228_
*300 _229_
*301 _230_
*302 _231_
*303 _232_
*304 _233_
*305 _234_
*306 _235_
*307 _236_
*308 _237_
*309 _238_
*310 _239_
*311 _240_
*312 _241_
*313 _242_
*314 _243_
*315 _244_
*316 _245_
*317 _246_
*318 _247_
*319 _248_
*320 _249_
*321 _250_
*322 _251_
*323 _252_
*324 _253_
*325 _254_
*326 _255_
*327 _256_
*328 _257_
*329 _258_
*330 _259_
*331 _260_
*332 _261_
*333 _262_
*334 _263_
*335 _264_
*336 _265_
*337 _266_
*338 _267_
*339 _268_
*340 _269_
*341 _270_
*342 _271_
*343 _272_
*344 _273_
*345 _274_
*346 _275_
*347 _276_
*348 _277_
*349 _278_
*350 _279_
*351 _280_
*352 _281_
*353 _282_
*354 _283_
*355 _284_
*356 _285_
*357 _286_
*358 _287_
*359 _288_
*360 _289_
*361 _290_
*362 _291_
*363 _292_
*364 _293_
*365 _294_
*366 _295_
*367 _296_
*368 _297_
*369 _298_
*370 _299_
*371 _300_
*372 _301_
*373 _302_
*374 _303_
*375 _304_
*376 _305_
*377 _306_
*378 _307_
*379 _308_
*380 _309_
*381 _310_
*382 _311_
*383 _312_
*384 _313_
*385 _314_
*386 _315_
*387 _316_
*388 _317_
*389 _318_
*390 _319_
*391 _320_
*392 _321_
*393 _322_
*394 _323_
*395 _324_
*396 _325_
*397 _326_
*398 _327_
*399 _328_
*400 _329_
*401 _330_
*402 _331_
*403 _332_
*404 _333_
*405 _334_
*406 _335_
*407 _336_
*408 _337_
*409 _338_
*410 _339_
*411 _340_
*412 _341_
*413 _342_
*414 _343_
*415 _344_
*416 _345_
*417 _346_
*418 _347_
*419 _348_
*420 _349_
*421 _350_
*422 _351_
*423 _352_
*424 _353_
*425 _354_
*426 _355_
*427 _356_
*428 _357_
*429 _358_
*430 _359_
*431 _360_
*432 _361_
*433 _362_
*434 _363_
*435 _364_
*436 _365_
*437 _366_
*438 _367_
*439 _368_
*440 _369_
*441 _370_
*442 _371_
*443 _372_
*444 _373_
*445 _374_
*446 _375_
*447 _376_
*448 _377_
*449 _378_
*450 _379_
*451 _380_
*452 _381_
*453 _382_
*454 _383_
*455 _384_
*456 _385_
*457 _386_
*458 _387_
*459 _388_
*460 _389_
*461 _390_
*462 _391_
*463 _392_
*464 _393_
*465 _394_
*466 _395_
*467 _396_
*468 _397_
*469 _398_
*470 _399_
*471 _400_
*472 _401_
*473 _402_
*474 _403_
*475 _404_
*476 _405_
*477 _406_
*478 _407_
*479 _408_
*480 _409_
*481 _410_
*482 _411_
*483 _412_
*484 net1
*485 net10
*486 net11
*487 net12
*488 net13
*489 net14
*490 net15
*491 net16
*492 net17
*493 net18
*494 net19
*495 net2
*496 net20
*497 net21
*498 net22
*499 net23
*500 net24
*501 net25
*502 net26
*503 net27
*504 net28
*505 net29
*506 net3
*507 net30
*508 net31
*509 net32
*510 net33
*511 net34
*512 net35
*513 net4
*514 net5
*515 net6
*516 net7
*517 net8
*518 net9
*519 ANTENNA__415__A
*520 ANTENNA__429__B1
*521 ANTENNA__439__B1
*522 ANTENNA__442__A1
*523 ANTENNA__465__A1
*524 ANTENNA__492__A1
*525 ANTENNA__528__A1
*526 ANTENNA__549__B
*527 ANTENNA__562__A1
*528 ANTENNA__585__C
*529 ANTENNA__585__D_N
*530 ANTENNA__586__A2_N
*531 ANTENNA__586__B1
*532 ANTENNA__606__A1
*533 ANTENNA__620__B
*534 ANTENNA__622__A2
*535 ANTENNA__622__B1
*536 ANTENNA__624__A3
*537 ANTENNA__640__A1
*538 ANTENNA__658__A2_N
*539 ANTENNA__658__B1
*540 ANTENNA__659__A2
*541 ANTENNA__679__A1
*542 ANTENNA__687__A2
*543 ANTENNA__687__B1
*544 ANTENNA__699__B
*545 ANTENNA__710__A1
*546 ANTENNA__714__C1
*547 ANTENNA__726__C
*548 ANTENNA__726__D_N
*549 ANTENNA__727__A2_N
*550 ANTENNA__727__B1
*551 ANTENNA__741__A
*552 ANTENNA__742__B
*553 ANTENNA__744__C_N
*554 ANTENNA__760__A1
*555 ANTENNA__761__B
*556 ANTENNA__762__B
*557 ANTENNA__763__A1
*558 ANTENNA__782__A2
*559 ANTENNA__782__C1
*560 ANTENNA__787__B1
*561 ANTENNA__789__A1
*562 ANTENNA__791__A1
*563 ANTENNA__807__A
*564 ANTENNA__807__B
*565 ANTENNA__810__A
*566 ANTENNA__811__A
*567 ANTENNA__812__A
*568 ANTENNA__813__A
*569 ANTENNA__814__A
*570 ANTENNA__815__A
*571 ANTENNA__816__A
*572 ANTENNA__817__A
*573 ANTENNA__818__A
*574 ANTENNA__819__A
*575 ANTENNA__820__A
*576 ANTENNA__821__A
*577 ANTENNA__822__A
*578 ANTENNA__823__A
*579 ANTENNA__824__A
*580 ANTENNA__825__A
*581 ANTENNA__826__A
*582 ANTENNA__827__A
*583 ANTENNA__828__A
*584 ANTENNA__829__A
*585 ANTENNA__830__A
*586 ANTENNA__831__A
*587 ANTENNA__832__A
*588 ANTENNA__833__A
*589 ANTENNA__834__A
*590 ANTENNA__835__A
*591 ANTENNA__836__A
*592 ANTENNA__837__A
*593 ANTENNA__838__A
*594 ANTENNA__839__A
*595 ANTENNA__840__A
*596 ANTENNA__841__A
*597 ANTENNA__842__CLK
*598 ANTENNA__842__D
*599 ANTENNA__843__CLK
*600 ANTENNA__844__CLK
*601 ANTENNA__845__CLK
*602 ANTENNA__846__CLK
*603 ANTENNA__847__CLK
*604 ANTENNA__848__CLK
*605 ANTENNA__849__CLK
*606 ANTENNA__850__CLK
*607 ANTENNA__851__CLK
*608 ANTENNA__852__CLK
*609 ANTENNA__853__CLK
*610 ANTENNA__854__CLK
*611 ANTENNA__855__CLK
*612 ANTENNA__856__CLK
*613 ANTENNA__857__CLK
*614 ANTENNA__858__CLK
*615 ANTENNA__859__CLK
*616 ANTENNA__860__CLK
*617 ANTENNA__861__CLK
*618 ANTENNA__862__CLK
*619 ANTENNA__863__CLK
*620 ANTENNA__864__CLK
*621 ANTENNA__865__CLK
*622 ANTENNA__866__CLK
*623 ANTENNA__867__CLK
*624 ANTENNA__868__CLK
*625 ANTENNA__869__CLK
*626 ANTENNA__870__CLK
*627 ANTENNA__871__CLK
*628 ANTENNA__872__CLK
*629 ANTENNA__873__CLK
*630 ANTENNA__874__CLK
*631 ANTENNA_output28_A
*632 FILLER_0_0_111
*633 FILLER_0_0_113
*634 FILLER_0_0_125
*635 FILLER_0_0_137
*636 FILLER_0_0_141
*637 FILLER_0_0_153
*638 FILLER_0_0_165
*639 FILLER_0_0_169
*640 FILLER_0_0_18
*641 FILLER_0_0_181
*642 FILLER_0_0_193
*643 FILLER_0_0_197
*644 FILLER_0_0_209
*645 FILLER_0_0_221
*646 FILLER_0_0_225
*647 FILLER_0_0_237
*648 FILLER_0_0_249
*649 FILLER_0_0_253
*650 FILLER_0_0_26
*651 FILLER_0_0_265
*652 FILLER_0_0_277
*653 FILLER_0_0_281
*654 FILLER_0_0_29
*655 FILLER_0_0_301
*656 FILLER_0_0_307
*657 FILLER_0_0_309
*658 FILLER_0_0_321
*659 FILLER_0_0_333
*660 FILLER_0_0_337
*661 FILLER_0_0_349
*662 FILLER_0_0_361
*663 FILLER_0_0_365
*664 FILLER_0_0_41
*665 FILLER_0_0_53
*666 FILLER_0_0_57
*667 FILLER_0_0_6
*668 FILLER_0_0_69
*669 FILLER_0_0_81
*670 FILLER_0_0_85
*671 FILLER_0_0_99
*672 FILLER_0_10_109
*673 FILLER_0_10_121
*674 FILLER_0_10_133
*675 FILLER_0_10_139
*676 FILLER_0_10_141
*677 FILLER_0_10_15
*678 FILLER_0_10_153
*679 FILLER_0_10_165
*680 FILLER_0_10_177
*681 FILLER_0_10_189
*682 FILLER_0_10_195
*683 FILLER_0_10_197
*684 FILLER_0_10_209
*685 FILLER_0_10_221
*686 FILLER_0_10_233
*687 FILLER_0_10_245
*688 FILLER_0_10_251
*689 FILLER_0_10_253
*690 FILLER_0_10_265
*691 FILLER_0_10_27
*692 FILLER_0_10_277
*693 FILLER_0_10_289
*694 FILLER_0_10_29
*695 FILLER_0_10_3
*696 FILLER_0_10_301
*697 FILLER_0_10_307
*698 FILLER_0_10_309
*699 FILLER_0_10_321
*700 FILLER_0_10_333
*701 FILLER_0_10_345
*702 FILLER_0_10_365
*703 FILLER_0_10_41
*704 FILLER_0_10_53
*705 FILLER_0_10_65
*706 FILLER_0_10_77
*707 FILLER_0_10_83
*708 FILLER_0_10_85
*709 FILLER_0_10_97
*710 FILLER_0_11_105
*711 FILLER_0_11_111
*712 FILLER_0_11_113
*713 FILLER_0_11_125
*714 FILLER_0_11_137
*715 FILLER_0_11_149
*716 FILLER_0_11_15
*717 FILLER_0_11_161
*718 FILLER_0_11_167
*719 FILLER_0_11_169
*720 FILLER_0_11_181
*721 FILLER_0_11_193
*722 FILLER_0_11_205
*723 FILLER_0_11_217
*724 FILLER_0_11_223
*725 FILLER_0_11_225
*726 FILLER_0_11_237
*727 FILLER_0_11_249
*728 FILLER_0_11_261
*729 FILLER_0_11_27
*730 FILLER_0_11_273
*731 FILLER_0_11_279
*732 FILLER_0_11_281
*733 FILLER_0_11_293
*734 FILLER_0_11_3
*735 FILLER_0_11_305
*736 FILLER_0_11_317
*737 FILLER_0_11_329
*738 FILLER_0_11_335
*739 FILLER_0_11_337
*740 FILLER_0_11_349
*741 FILLER_0_11_361
*742 FILLER_0_11_367
*743 FILLER_0_11_39
*744 FILLER_0_11_45
*745 FILLER_0_11_49
*746 FILLER_0_11_55
*747 FILLER_0_11_57
*748 FILLER_0_11_69
*749 FILLER_0_11_81
*750 FILLER_0_11_93
*751 FILLER_0_12_109
*752 FILLER_0_12_121
*753 FILLER_0_12_133
*754 FILLER_0_12_139
*755 FILLER_0_12_141
*756 FILLER_0_12_153
*757 FILLER_0_12_165
*758 FILLER_0_12_177
*759 FILLER_0_12_18
*760 FILLER_0_12_189
*761 FILLER_0_12_195
*762 FILLER_0_12_197
*763 FILLER_0_12_209
*764 FILLER_0_12_221
*765 FILLER_0_12_233
*766 FILLER_0_12_245
*767 FILLER_0_12_251
*768 FILLER_0_12_253
*769 FILLER_0_12_26
*770 FILLER_0_12_265
*771 FILLER_0_12_277
*772 FILLER_0_12_289
*773 FILLER_0_12_29
*774 FILLER_0_12_301
*775 FILLER_0_12_307
*776 FILLER_0_12_309
*777 FILLER_0_12_321
*778 FILLER_0_12_333
*779 FILLER_0_12_345
*780 FILLER_0_12_357
*781 FILLER_0_12_363
*782 FILLER_0_12_365
*783 FILLER_0_12_54
*784 FILLER_0_12_58
*785 FILLER_0_12_6
*786 FILLER_0_12_70
*787 FILLER_0_12_82
*788 FILLER_0_12_85
*789 FILLER_0_12_97
*790 FILLER_0_13_105
*791 FILLER_0_13_111
*792 FILLER_0_13_113
*793 FILLER_0_13_125
*794 FILLER_0_13_137
*795 FILLER_0_13_149
*796 FILLER_0_13_15
*797 FILLER_0_13_161
*798 FILLER_0_13_167
*799 FILLER_0_13_169
*800 FILLER_0_13_181
*801 FILLER_0_13_193
*802 FILLER_0_13_205
*803 FILLER_0_13_217
*804 FILLER_0_13_223
*805 FILLER_0_13_225
*806 FILLER_0_13_237
*807 FILLER_0_13_249
*808 FILLER_0_13_261
*809 FILLER_0_13_27
*810 FILLER_0_13_273
*811 FILLER_0_13_279
*812 FILLER_0_13_281
*813 FILLER_0_13_293
*814 FILLER_0_13_3
*815 FILLER_0_13_305
*816 FILLER_0_13_317
*817 FILLER_0_13_329
*818 FILLER_0_13_335
*819 FILLER_0_13_337
*820 FILLER_0_13_349
*821 FILLER_0_13_361
*822 FILLER_0_13_367
*823 FILLER_0_13_39
*824 FILLER_0_13_51
*825 FILLER_0_13_55
*826 FILLER_0_13_57
*827 FILLER_0_13_69
*828 FILLER_0_13_81
*829 FILLER_0_13_93
*830 FILLER_0_14_109
*831 FILLER_0_14_121
*832 FILLER_0_14_133
*833 FILLER_0_14_139
*834 FILLER_0_14_141
*835 FILLER_0_14_147
*836 FILLER_0_14_15
*837 FILLER_0_14_151
*838 FILLER_0_14_163
*839 FILLER_0_14_175
*840 FILLER_0_14_187
*841 FILLER_0_14_195
*842 FILLER_0_14_197
*843 FILLER_0_14_209
*844 FILLER_0_14_221
*845 FILLER_0_14_233
*846 FILLER_0_14_245
*847 FILLER_0_14_251
*848 FILLER_0_14_253
*849 FILLER_0_14_265
*850 FILLER_0_14_27
*851 FILLER_0_14_277
*852 FILLER_0_14_289
*853 FILLER_0_14_29
*854 FILLER_0_14_3
*855 FILLER_0_14_301
*856 FILLER_0_14_307
*857 FILLER_0_14_309
*858 FILLER_0_14_321
*859 FILLER_0_14_333
*860 FILLER_0_14_345
*861 FILLER_0_14_365
*862 FILLER_0_14_41
*863 FILLER_0_14_53
*864 FILLER_0_14_65
*865 FILLER_0_14_77
*866 FILLER_0_14_83
*867 FILLER_0_14_85
*868 FILLER_0_14_97
*869 FILLER_0_15_105
*870 FILLER_0_15_111
*871 FILLER_0_15_113
*872 FILLER_0_15_125
*873 FILLER_0_15_131
*874 FILLER_0_15_15
*875 FILLER_0_15_155
*876 FILLER_0_15_167
*877 FILLER_0_15_169
*878 FILLER_0_15_181
*879 FILLER_0_15_193
*880 FILLER_0_15_205
*881 FILLER_0_15_217
*882 FILLER_0_15_223
*883 FILLER_0_15_225
*884 FILLER_0_15_237
*885 FILLER_0_15_263
*886 FILLER_0_15_27
*887 FILLER_0_15_275
*888 FILLER_0_15_279
*889 FILLER_0_15_281
*890 FILLER_0_15_293
*891 FILLER_0_15_3
*892 FILLER_0_15_305
*893 FILLER_0_15_317
*894 FILLER_0_15_329
*895 FILLER_0_15_335
*896 FILLER_0_15_337
*897 FILLER_0_15_349
*898 FILLER_0_15_361
*899 FILLER_0_15_367
*900 FILLER_0_15_39
*901 FILLER_0_15_43
*902 FILLER_0_15_47
*903 FILLER_0_15_51
*904 FILLER_0_15_55
*905 FILLER_0_15_57
*906 FILLER_0_15_69
*907 FILLER_0_15_81
*908 FILLER_0_15_93
*909 FILLER_0_16_109
*910 FILLER_0_16_117
*911 FILLER_0_16_126
*912 FILLER_0_16_138
*913 FILLER_0_16_141
*914 FILLER_0_16_153
*915 FILLER_0_16_165
*916 FILLER_0_16_177
*917 FILLER_0_16_18
*918 FILLER_0_16_189
*919 FILLER_0_16_195
*920 FILLER_0_16_197
*921 FILLER_0_16_209
*922 FILLER_0_16_221
*923 FILLER_0_16_233
*924 FILLER_0_16_245
*925 FILLER_0_16_251
*926 FILLER_0_16_253
*927 FILLER_0_16_257
*928 FILLER_0_16_26
*929 FILLER_0_16_261
*930 FILLER_0_16_273
*931 FILLER_0_16_285
*932 FILLER_0_16_29
*933 FILLER_0_16_297
*934 FILLER_0_16_305
*935 FILLER_0_16_309
*936 FILLER_0_16_321
*937 FILLER_0_16_33
*938 FILLER_0_16_333
*939 FILLER_0_16_345
*940 FILLER_0_16_357
*941 FILLER_0_16_363
*942 FILLER_0_16_365
*943 FILLER_0_16_57
*944 FILLER_0_16_6
*945 FILLER_0_16_61
*946 FILLER_0_16_73
*947 FILLER_0_16_81
*948 FILLER_0_16_85
*949 FILLER_0_16_97
*950 FILLER_0_17_105
*951 FILLER_0_17_111
*952 FILLER_0_17_113
*953 FILLER_0_17_126
*954 FILLER_0_17_138
*955 FILLER_0_17_15
*956 FILLER_0_17_150
*957 FILLER_0_17_159
*958 FILLER_0_17_166
*959 FILLER_0_17_169
*960 FILLER_0_17_175
*961 FILLER_0_17_179
*962 FILLER_0_17_191
*963 FILLER_0_17_203
*964 FILLER_0_17_213
*965 FILLER_0_17_221
*966 FILLER_0_17_225
*967 FILLER_0_17_233
*968 FILLER_0_17_239
*969 FILLER_0_17_262
*970 FILLER_0_17_27
*971 FILLER_0_17_274
*972 FILLER_0_17_281
*973 FILLER_0_17_293
*974 FILLER_0_17_3
*975 FILLER_0_17_305
*976 FILLER_0_17_317
*977 FILLER_0_17_329
*978 FILLER_0_17_335
*979 FILLER_0_17_337
*980 FILLER_0_17_349
*981 FILLER_0_17_361
*982 FILLER_0_17_367
*983 FILLER_0_17_39
*984 FILLER_0_17_43
*985 FILLER_0_17_47
*986 FILLER_0_17_51
*987 FILLER_0_17_55
*988 FILLER_0_17_57
*989 FILLER_0_17_69
*990 FILLER_0_17_81
*991 FILLER_0_17_93
*992 FILLER_0_18_103
*993 FILLER_0_18_107
*994 FILLER_0_18_127
*995 FILLER_0_18_15
*996 FILLER_0_18_160
*997 FILLER_0_18_174
*998 FILLER_0_18_183
*999 FILLER_0_18_195
*1000 FILLER_0_18_197
*1001 FILLER_0_18_205
*1002 FILLER_0_18_216
*1003 FILLER_0_18_220
*1004 FILLER_0_18_233
*1005 FILLER_0_18_245
*1006 FILLER_0_18_251
*1007 FILLER_0_18_256
*1008 FILLER_0_18_260
*1009 FILLER_0_18_27
*1010 FILLER_0_18_272
*1011 FILLER_0_18_284
*1012 FILLER_0_18_29
*1013 FILLER_0_18_296
*1014 FILLER_0_18_3
*1015 FILLER_0_18_309
*1016 FILLER_0_18_321
*1017 FILLER_0_18_333
*1018 FILLER_0_18_345
*1019 FILLER_0_18_365
*1020 FILLER_0_18_56
*1021 FILLER_0_18_60
*1022 FILLER_0_18_72
*1023 FILLER_0_18_85
*1024 FILLER_0_18_97
*1025 FILLER_0_19_111
*1026 FILLER_0_19_116
*1027 FILLER_0_19_122
*1028 FILLER_0_19_128
*1029 FILLER_0_19_142
*1030 FILLER_0_19_15
*1031 FILLER_0_19_152
*1032 FILLER_0_19_161
*1033 FILLER_0_19_166
*1034 FILLER_0_19_191
*1035 FILLER_0_19_203
*1036 FILLER_0_19_215
*1037 FILLER_0_19_223
*1038 FILLER_0_19_225
*1039 FILLER_0_19_235
*1040 FILLER_0_19_247
*1041 FILLER_0_19_259
*1042 FILLER_0_19_27
*1043 FILLER_0_19_271
*1044 FILLER_0_19_279
*1045 FILLER_0_19_281
*1046 FILLER_0_19_293
*1047 FILLER_0_19_3
*1048 FILLER_0_19_305
*1049 FILLER_0_19_317
*1050 FILLER_0_19_329
*1051 FILLER_0_19_335
*1052 FILLER_0_19_337
*1053 FILLER_0_19_349
*1054 FILLER_0_19_361
*1055 FILLER_0_19_367
*1056 FILLER_0_19_39
*1057 FILLER_0_19_46
*1058 FILLER_0_19_50
*1059 FILLER_0_19_57
*1060 FILLER_0_19_65
*1061 FILLER_0_19_88
*1062 FILLER_0_19_96
*1063 FILLER_0_1_105
*1064 FILLER_0_1_111
*1065 FILLER_0_1_113
*1066 FILLER_0_1_125
*1067 FILLER_0_1_137
*1068 FILLER_0_1_149
*1069 FILLER_0_1_15
*1070 FILLER_0_1_161
*1071 FILLER_0_1_167
*1072 FILLER_0_1_169
*1073 FILLER_0_1_181
*1074 FILLER_0_1_193
*1075 FILLER_0_1_205
*1076 FILLER_0_1_211
*1077 FILLER_0_1_214
*1078 FILLER_0_1_222
*1079 FILLER_0_1_225
*1080 FILLER_0_1_237
*1081 FILLER_0_1_249
*1082 FILLER_0_1_261
*1083 FILLER_0_1_27
*1084 FILLER_0_1_273
*1085 FILLER_0_1_279
*1086 FILLER_0_1_281
*1087 FILLER_0_1_293
*1088 FILLER_0_1_3
*1089 FILLER_0_1_305
*1090 FILLER_0_1_317
*1091 FILLER_0_1_329
*1092 FILLER_0_1_335
*1093 FILLER_0_1_337
*1094 FILLER_0_1_349
*1095 FILLER_0_1_361
*1096 FILLER_0_1_367
*1097 FILLER_0_1_39
*1098 FILLER_0_1_51
*1099 FILLER_0_1_55
*1100 FILLER_0_1_57
*1101 FILLER_0_1_69
*1102 FILLER_0_1_81
*1103 FILLER_0_1_93
*1104 FILLER_0_20_109
*1105 FILLER_0_20_121
*1106 FILLER_0_20_137
*1107 FILLER_0_20_146
*1108 FILLER_0_20_158
*1109 FILLER_0_20_170
*1110 FILLER_0_20_18
*1111 FILLER_0_20_187
*1112 FILLER_0_20_191
*1113 FILLER_0_20_195
*1114 FILLER_0_20_206
*1115 FILLER_0_20_218
*1116 FILLER_0_20_225
*1117 FILLER_0_20_232
*1118 FILLER_0_20_236
*1119 FILLER_0_20_248
*1120 FILLER_0_20_253
*1121 FILLER_0_20_26
*1122 FILLER_0_20_265
*1123 FILLER_0_20_277
*1124 FILLER_0_20_289
*1125 FILLER_0_20_29
*1126 FILLER_0_20_301
*1127 FILLER_0_20_307
*1128 FILLER_0_20_309
*1129 FILLER_0_20_321
*1130 FILLER_0_20_333
*1131 FILLER_0_20_345
*1132 FILLER_0_20_357
*1133 FILLER_0_20_363
*1134 FILLER_0_20_365
*1135 FILLER_0_20_55
*1136 FILLER_0_20_59
*1137 FILLER_0_20_6
*1138 FILLER_0_20_85
*1139 FILLER_0_20_97
*1140 FILLER_0_21_102
*1141 FILLER_0_21_109
*1142 FILLER_0_21_113
*1143 FILLER_0_21_123
*1144 FILLER_0_21_15
*1145 FILLER_0_21_151
*1146 FILLER_0_21_159
*1147 FILLER_0_21_167
*1148 FILLER_0_21_169
*1149 FILLER_0_21_181
*1150 FILLER_0_21_189
*1151 FILLER_0_21_222
*1152 FILLER_0_21_232
*1153 FILLER_0_21_240
*1154 FILLER_0_21_269
*1155 FILLER_0_21_27
*1156 FILLER_0_21_273
*1157 FILLER_0_21_279
*1158 FILLER_0_21_281
*1159 FILLER_0_21_293
*1160 FILLER_0_21_3
*1161 FILLER_0_21_305
*1162 FILLER_0_21_31
*1163 FILLER_0_21_317
*1164 FILLER_0_21_329
*1165 FILLER_0_21_335
*1166 FILLER_0_21_337
*1167 FILLER_0_21_349
*1168 FILLER_0_21_361
*1169 FILLER_0_21_367
*1170 FILLER_0_21_55
*1171 FILLER_0_21_57
*1172 FILLER_0_21_61
*1173 FILLER_0_21_67
*1174 FILLER_0_21_90
*1175 FILLER_0_22_116
*1176 FILLER_0_22_125
*1177 FILLER_0_22_141
*1178 FILLER_0_22_15
*1179 FILLER_0_22_162
*1180 FILLER_0_22_167
*1181 FILLER_0_22_179
*1182 FILLER_0_22_191
*1183 FILLER_0_22_195
*1184 FILLER_0_22_206
*1185 FILLER_0_22_220
*1186 FILLER_0_22_228
*1187 FILLER_0_22_235
*1188 FILLER_0_22_247
*1189 FILLER_0_22_251
*1190 FILLER_0_22_253
*1191 FILLER_0_22_265
*1192 FILLER_0_22_27
*1193 FILLER_0_22_277
*1194 FILLER_0_22_289
*1195 FILLER_0_22_29
*1196 FILLER_0_22_3
*1197 FILLER_0_22_301
*1198 FILLER_0_22_307
*1199 FILLER_0_22_309
*1200 FILLER_0_22_321
*1201 FILLER_0_22_333
*1202 FILLER_0_22_345
*1203 FILLER_0_22_365
*1204 FILLER_0_22_49
*1205 FILLER_0_22_53
*1206 FILLER_0_22_57
*1207 FILLER_0_22_61
*1208 FILLER_0_22_71
*1209 FILLER_0_22_83
*1210 FILLER_0_22_85
*1211 FILLER_0_22_93
*1212 FILLER_0_22_99
*1213 FILLER_0_23_111
*1214 FILLER_0_23_113
*1215 FILLER_0_23_125
*1216 FILLER_0_23_137
*1217 FILLER_0_23_149
*1218 FILLER_0_23_15
*1219 FILLER_0_23_158
*1220 FILLER_0_23_166
*1221 FILLER_0_23_172
*1222 FILLER_0_23_188
*1223 FILLER_0_23_203
*1224 FILLER_0_23_215
*1225 FILLER_0_23_223
*1226 FILLER_0_23_225
*1227 FILLER_0_23_237
*1228 FILLER_0_23_249
*1229 FILLER_0_23_261
*1230 FILLER_0_23_27
*1231 FILLER_0_23_273
*1232 FILLER_0_23_279
*1233 FILLER_0_23_281
*1234 FILLER_0_23_293
*1235 FILLER_0_23_3
*1236 FILLER_0_23_305
*1237 FILLER_0_23_31
*1238 FILLER_0_23_317
*1239 FILLER_0_23_329
*1240 FILLER_0_23_335
*1241 FILLER_0_23_337
*1242 FILLER_0_23_349
*1243 FILLER_0_23_361
*1244 FILLER_0_23_367
*1245 FILLER_0_23_55
*1246 FILLER_0_23_57
*1247 FILLER_0_23_81
*1248 FILLER_0_23_91
*1249 FILLER_0_23_95
*1250 FILLER_0_24_134
*1251 FILLER_0_24_141
*1252 FILLER_0_24_149
*1253 FILLER_0_24_168
*1254 FILLER_0_24_172
*1255 FILLER_0_24_18
*1256 FILLER_0_24_184
*1257 FILLER_0_24_197
*1258 FILLER_0_24_209
*1259 FILLER_0_24_213
*1260 FILLER_0_24_217
*1261 FILLER_0_24_229
*1262 FILLER_0_24_232
*1263 FILLER_0_24_244
*1264 FILLER_0_24_247
*1265 FILLER_0_24_251
*1266 FILLER_0_24_253
*1267 FILLER_0_24_26
*1268 FILLER_0_24_265
*1269 FILLER_0_24_277
*1270 FILLER_0_24_289
*1271 FILLER_0_24_29
*1272 FILLER_0_24_301
*1273 FILLER_0_24_307
*1274 FILLER_0_24_309
*1275 FILLER_0_24_321
*1276 FILLER_0_24_333
*1277 FILLER_0_24_345
*1278 FILLER_0_24_357
*1279 FILLER_0_24_363
*1280 FILLER_0_24_365
*1281 FILLER_0_24_41
*1282 FILLER_0_24_53
*1283 FILLER_0_24_6
*1284 FILLER_0_24_66
*1285 FILLER_0_24_70
*1286 FILLER_0_24_81
*1287 FILLER_0_24_85
*1288 FILLER_0_25_100
*1289 FILLER_0_25_104
*1290 FILLER_0_25_138
*1291 FILLER_0_25_146
*1292 FILLER_0_25_15
*1293 FILLER_0_25_160
*1294 FILLER_0_25_172
*1295 FILLER_0_25_184
*1296 FILLER_0_25_196
*1297 FILLER_0_25_27
*1298 FILLER_0_25_270
*1299 FILLER_0_25_274
*1300 FILLER_0_25_281
*1301 FILLER_0_25_293
*1302 FILLER_0_25_3
*1303 FILLER_0_25_305
*1304 FILLER_0_25_317
*1305 FILLER_0_25_329
*1306 FILLER_0_25_33
*1307 FILLER_0_25_335
*1308 FILLER_0_25_337
*1309 FILLER_0_25_349
*1310 FILLER_0_25_361
*1311 FILLER_0_25_367
*1312 FILLER_0_25_79
*1313 FILLER_0_26_106
*1314 FILLER_0_26_118
*1315 FILLER_0_26_128
*1316 FILLER_0_26_145
*1317 FILLER_0_26_15
*1318 FILLER_0_26_153
*1319 FILLER_0_26_157
*1320 FILLER_0_26_177
*1321 FILLER_0_26_204
*1322 FILLER_0_26_212
*1323 FILLER_0_26_219
*1324 FILLER_0_26_231
*1325 FILLER_0_26_243
*1326 FILLER_0_26_251
*1327 FILLER_0_26_253
*1328 FILLER_0_26_265
*1329 FILLER_0_26_27
*1330 FILLER_0_26_277
*1331 FILLER_0_26_289
*1332 FILLER_0_26_29
*1333 FILLER_0_26_3
*1334 FILLER_0_26_301
*1335 FILLER_0_26_307
*1336 FILLER_0_26_309
*1337 FILLER_0_26_321
*1338 FILLER_0_26_333
*1339 FILLER_0_26_345
*1340 FILLER_0_26_365
*1341 FILLER_0_26_53
*1342 FILLER_0_26_76
*1343 FILLER_0_26_93
*1344 FILLER_0_26_97
*1345 FILLER_0_27_108
*1346 FILLER_0_27_113
*1347 FILLER_0_27_126
*1348 FILLER_0_27_130
*1349 FILLER_0_27_139
*1350 FILLER_0_27_147
*1351 FILLER_0_27_15
*1352 FILLER_0_27_154
*1353 FILLER_0_27_166
*1354 FILLER_0_27_169
*1355 FILLER_0_27_195
*1356 FILLER_0_27_207
*1357 FILLER_0_27_223
*1358 FILLER_0_27_228
*1359 FILLER_0_27_236
*1360 FILLER_0_27_240
*1361 FILLER_0_27_252
*1362 FILLER_0_27_256
*1363 FILLER_0_27_260
*1364 FILLER_0_27_264
*1365 FILLER_0_27_27
*1366 FILLER_0_27_276
*1367 FILLER_0_27_281
*1368 FILLER_0_27_293
*1369 FILLER_0_27_3
*1370 FILLER_0_27_305
*1371 FILLER_0_27_317
*1372 FILLER_0_27_329
*1373 FILLER_0_27_335
*1374 FILLER_0_27_337
*1375 FILLER_0_27_349
*1376 FILLER_0_27_361
*1377 FILLER_0_27_367
*1378 FILLER_0_27_39
*1379 FILLER_0_27_44
*1380 FILLER_0_27_48
*1381 FILLER_0_27_52
*1382 FILLER_0_27_55
*1383 FILLER_0_27_57
*1384 FILLER_0_27_69
*1385 FILLER_0_27_96
*1386 FILLER_0_28_110
*1387 FILLER_0_28_125
*1388 FILLER_0_28_137
*1389 FILLER_0_28_141
*1390 FILLER_0_28_146
*1391 FILLER_0_28_152
*1392 FILLER_0_28_161
*1393 FILLER_0_28_173
*1394 FILLER_0_28_18
*1395 FILLER_0_28_185
*1396 FILLER_0_28_197
*1397 FILLER_0_28_205
*1398 FILLER_0_28_221
*1399 FILLER_0_28_246
*1400 FILLER_0_28_26
*1401 FILLER_0_28_273
*1402 FILLER_0_28_285
*1403 FILLER_0_28_29
*1404 FILLER_0_28_297
*1405 FILLER_0_28_305
*1406 FILLER_0_28_309
*1407 FILLER_0_28_321
*1408 FILLER_0_28_333
*1409 FILLER_0_28_345
*1410 FILLER_0_28_357
*1411 FILLER_0_28_363
*1412 FILLER_0_28_365
*1413 FILLER_0_28_53
*1414 FILLER_0_28_6
*1415 FILLER_0_28_79
*1416 FILLER_0_28_83
*1417 FILLER_0_28_92
*1418 FILLER_0_29_113
*1419 FILLER_0_29_121
*1420 FILLER_0_29_132
*1421 FILLER_0_29_15
*1422 FILLER_0_29_162
*1423 FILLER_0_29_166
*1424 FILLER_0_29_169
*1425 FILLER_0_29_183
*1426 FILLER_0_29_195
*1427 FILLER_0_29_207
*1428 FILLER_0_29_219
*1429 FILLER_0_29_223
*1430 FILLER_0_29_225
*1431 FILLER_0_29_237
*1432 FILLER_0_29_249
*1433 FILLER_0_29_261
*1434 FILLER_0_29_27
*1435 FILLER_0_29_273
*1436 FILLER_0_29_279
*1437 FILLER_0_29_281
*1438 FILLER_0_29_293
*1439 FILLER_0_29_3
*1440 FILLER_0_29_305
*1441 FILLER_0_29_317
*1442 FILLER_0_29_329
*1443 FILLER_0_29_335
*1444 FILLER_0_29_337
*1445 FILLER_0_29_349
*1446 FILLER_0_29_361
*1447 FILLER_0_29_367
*1448 FILLER_0_29_39
*1449 FILLER_0_29_44
*1450 FILLER_0_29_48
*1451 FILLER_0_29_52
*1452 FILLER_0_29_55
*1453 FILLER_0_29_79
*1454 FILLER_0_29_90
*1455 FILLER_0_29_98
*1456 FILLER_0_2_109
*1457 FILLER_0_2_121
*1458 FILLER_0_2_133
*1459 FILLER_0_2_139
*1460 FILLER_0_2_141
*1461 FILLER_0_2_15
*1462 FILLER_0_2_153
*1463 FILLER_0_2_165
*1464 FILLER_0_2_177
*1465 FILLER_0_2_189
*1466 FILLER_0_2_195
*1467 FILLER_0_2_197
*1468 FILLER_0_2_209
*1469 FILLER_0_2_212
*1470 FILLER_0_2_237
*1471 FILLER_0_2_241
*1472 FILLER_0_2_249
*1473 FILLER_0_2_253
*1474 FILLER_0_2_265
*1475 FILLER_0_2_27
*1476 FILLER_0_2_277
*1477 FILLER_0_2_289
*1478 FILLER_0_2_29
*1479 FILLER_0_2_3
*1480 FILLER_0_2_301
*1481 FILLER_0_2_307
*1482 FILLER_0_2_309
*1483 FILLER_0_2_321
*1484 FILLER_0_2_333
*1485 FILLER_0_2_345
*1486 FILLER_0_2_365
*1487 FILLER_0_2_41
*1488 FILLER_0_2_53
*1489 FILLER_0_2_65
*1490 FILLER_0_2_77
*1491 FILLER_0_2_83
*1492 FILLER_0_2_85
*1493 FILLER_0_2_97
*1494 FILLER_0_30_109
*1495 FILLER_0_30_121
*1496 FILLER_0_30_133
*1497 FILLER_0_30_139
*1498 FILLER_0_30_141
*1499 FILLER_0_30_145
*1500 FILLER_0_30_15
*1501 FILLER_0_30_161
*1502 FILLER_0_30_176
*1503 FILLER_0_30_183
*1504 FILLER_0_30_195
*1505 FILLER_0_30_197
*1506 FILLER_0_30_207
*1507 FILLER_0_30_217
*1508 FILLER_0_30_229
*1509 FILLER_0_30_241
*1510 FILLER_0_30_249
*1511 FILLER_0_30_253
*1512 FILLER_0_30_265
*1513 FILLER_0_30_27
*1514 FILLER_0_30_277
*1515 FILLER_0_30_289
*1516 FILLER_0_30_29
*1517 FILLER_0_30_3
*1518 FILLER_0_30_301
*1519 FILLER_0_30_307
*1520 FILLER_0_30_309
*1521 FILLER_0_30_321
*1522 FILLER_0_30_333
*1523 FILLER_0_30_345
*1524 FILLER_0_30_365
*1525 FILLER_0_30_53
*1526 FILLER_0_30_81
*1527 FILLER_0_30_85
*1528 FILLER_0_30_97
*1529 FILLER_0_31_104
*1530 FILLER_0_31_111
*1531 FILLER_0_31_113
*1532 FILLER_0_31_140
*1533 FILLER_0_31_15
*1534 FILLER_0_31_152
*1535 FILLER_0_31_164
*1536 FILLER_0_31_169
*1537 FILLER_0_31_187
*1538 FILLER_0_31_206
*1539 FILLER_0_31_218
*1540 FILLER_0_31_225
*1541 FILLER_0_31_237
*1542 FILLER_0_31_249
*1543 FILLER_0_31_261
*1544 FILLER_0_31_27
*1545 FILLER_0_31_273
*1546 FILLER_0_31_279
*1547 FILLER_0_31_281
*1548 FILLER_0_31_293
*1549 FILLER_0_31_3
*1550 FILLER_0_31_305
*1551 FILLER_0_31_317
*1552 FILLER_0_31_329
*1553 FILLER_0_31_335
*1554 FILLER_0_31_337
*1555 FILLER_0_31_349
*1556 FILLER_0_31_361
*1557 FILLER_0_31_367
*1558 FILLER_0_31_39
*1559 FILLER_0_31_47
*1560 FILLER_0_31_92
*1561 FILLER_0_32_119
*1562 FILLER_0_32_138
*1563 FILLER_0_32_154
*1564 FILLER_0_32_166
*1565 FILLER_0_32_174
*1566 FILLER_0_32_18
*1567 FILLER_0_32_186
*1568 FILLER_0_32_194
*1569 FILLER_0_32_202
*1570 FILLER_0_32_214
*1571 FILLER_0_32_226
*1572 FILLER_0_32_238
*1573 FILLER_0_32_250
*1574 FILLER_0_32_253
*1575 FILLER_0_32_26
*1576 FILLER_0_32_265
*1577 FILLER_0_32_277
*1578 FILLER_0_32_289
*1579 FILLER_0_32_29
*1580 FILLER_0_32_301
*1581 FILLER_0_32_307
*1582 FILLER_0_32_309
*1583 FILLER_0_32_321
*1584 FILLER_0_32_333
*1585 FILLER_0_32_345
*1586 FILLER_0_32_357
*1587 FILLER_0_32_363
*1588 FILLER_0_32_365
*1589 FILLER_0_32_41
*1590 FILLER_0_32_6
*1591 FILLER_0_32_79
*1592 FILLER_0_32_83
*1593 FILLER_0_32_85
*1594 FILLER_0_32_95
*1595 FILLER_0_33_107
*1596 FILLER_0_33_111
*1597 FILLER_0_33_113
*1598 FILLER_0_33_121
*1599 FILLER_0_33_132
*1600 FILLER_0_33_144
*1601 FILLER_0_33_15
*1602 FILLER_0_33_152
*1603 FILLER_0_33_169
*1604 FILLER_0_33_177
*1605 FILLER_0_33_188
*1606 FILLER_0_33_196
*1607 FILLER_0_33_203
*1608 FILLER_0_33_215
*1609 FILLER_0_33_223
*1610 FILLER_0_33_225
*1611 FILLER_0_33_237
*1612 FILLER_0_33_249
*1613 FILLER_0_33_257
*1614 FILLER_0_33_262
*1615 FILLER_0_33_266
*1616 FILLER_0_33_27
*1617 FILLER_0_33_278
*1618 FILLER_0_33_281
*1619 FILLER_0_33_293
*1620 FILLER_0_33_3
*1621 FILLER_0_33_305
*1622 FILLER_0_33_317
*1623 FILLER_0_33_329
*1624 FILLER_0_33_335
*1625 FILLER_0_33_337
*1626 FILLER_0_33_349
*1627 FILLER_0_33_361
*1628 FILLER_0_33_367
*1629 FILLER_0_33_39
*1630 FILLER_0_33_51
*1631 FILLER_0_33_55
*1632 FILLER_0_33_79
*1633 FILLER_0_33_83
*1634 FILLER_0_33_92
*1635 FILLER_0_34_112
*1636 FILLER_0_34_124
*1637 FILLER_0_34_147
*1638 FILLER_0_34_15
*1639 FILLER_0_34_158
*1640 FILLER_0_34_167
*1641 FILLER_0_34_179
*1642 FILLER_0_34_192
*1643 FILLER_0_34_213
*1644 FILLER_0_34_225
*1645 FILLER_0_34_233
*1646 FILLER_0_34_241
*1647 FILLER_0_34_249
*1648 FILLER_0_34_27
*1649 FILLER_0_34_273
*1650 FILLER_0_34_285